# OC package for MODFLOW-2005 generated by Flopy 3.3.5
HEAD PRINT FORMAT   0
HEAD SAVE UNIT    30
DRAWDOWN PRINT FORMAT   0
COMPACT BUDGET AUX

period 1 step 1 
  print budget
  save budget

period 1 step 2 
  print budget
  save budget

period 1 step 3 
  print budget
  save budget

period 1 step 4 
  print budget
  save budget

period 1 step 5 
  print budget
  save head
  save budget

period 2 step 1 
  print budget
  save budget

period 2 step 2 
  print budget
  save budget

period 2 step 3 
  print budget
  save budget

period 2 step 4 
  print budget
  save budget

period 2 step 5 
  print budget
  save head
  save budget

period 3 step 1 
  print budget
  save budget

period 3 step 2 
  print budget
  save budget

period 3 step 3 
  print budget
  save budget

period 3 step 4 
  print budget
  save budget

period 3 step 5 
  print budget
  save head
  save budget

period 4 step 1 
  print budget
  save budget

period 4 step 2 
  print budget
  save budget

period 4 step 3 
  print budget
  save budget

period 4 step 4 
  print budget
  save budget

period 4 step 5 
  print budget
  save head
  save budget

period 5 step 1 
  print budget
  save budget

period 5 step 2 
  print budget
  save budget

period 5 step 3 
  print budget
  save budget

period 5 step 4 
  print budget
  save budget

period 5 step 5 
  print budget
  save head
  save budget

period 6 step 1 
  print budget
  save budget

period 6 step 2 
  print budget
  save budget

period 6 step 3 
  print budget
  save budget

period 6 step 4 
  print budget
  save budget

period 6 step 5 
  print budget
  save head
  save budget

period 7 step 1 
  print budget
  save budget

period 7 step 2 
  print budget
  save budget

period 7 step 3 
  print budget
  save budget

period 7 step 4 
  print budget
  save budget

period 7 step 5 
  print budget
  save head
  save budget

period 8 step 1 
  print budget
  save budget

period 8 step 2 
  print budget
  save budget

period 8 step 3 
  print budget
  save budget

period 8 step 4 
  print budget
  save budget

period 8 step 5 
  print budget
  save head
  save budget

period 9 step 1 
  print budget
  save budget

period 9 step 2 
  print budget
  save budget

period 9 step 3 
  print budget
  save budget

period 9 step 4 
  print budget
  save budget

period 9 step 5 
  print budget
  save head
  save budget

period 10 step 1 
  print budget
  save budget

period 10 step 2 
  print budget
  save budget

period 10 step 3 
  print budget
  save budget

period 10 step 4 
  print budget
  save budget

period 10 step 5 
  print budget
  save head
  save budget

period 11 step 1 
  print budget
  save budget

period 11 step 2 
  print budget
  save budget

period 11 step 3 
  print budget
  save budget

period 11 step 4 
  print budget
  save budget

period 11 step 5 
  print budget
  save head
  save budget

period 12 step 1 
  print budget
  save budget

period 12 step 2 
  print budget
  save budget

period 12 step 3 
  print budget
  save budget

period 12 step 4 
  print budget
  save budget

period 12 step 5 
  print budget
  save head
  save budget

period 13 step 1 
  print budget
  save budget

period 13 step 2 
  print budget
  save budget

period 13 step 3 
  print budget
  save budget

period 13 step 4 
  print budget
  save budget

period 13 step 5 
  print budget
  save head
  save budget

period 14 step 1 
  print budget
  save budget

period 14 step 2 
  print budget
  save budget

period 14 step 3 
  print budget
  save budget

period 14 step 4 
  print budget
  save budget

period 14 step 5 
  print budget
  save head
  save budget

period 15 step 1 
  print budget
  save budget

period 15 step 2 
  print budget
  save budget

period 15 step 3 
  print budget
  save budget

period 15 step 4 
  print budget
  save budget

period 15 step 5 
  print budget
  save head
  save budget

period 16 step 1 
  print budget
  save budget

period 16 step 2 
  print budget
  save budget

period 16 step 3 
  print budget
  save budget

period 16 step 4 
  print budget
  save budget

period 16 step 5 
  print budget
  save head
  save budget

period 17 step 1 
  print budget
  save budget

period 17 step 2 
  print budget
  save budget

period 17 step 3 
  print budget
  save budget

period 17 step 4 
  print budget
  save budget

period 17 step 5 
  print budget
  save head
  save budget

period 18 step 1 
  print budget
  save budget

period 18 step 2 
  print budget
  save budget

period 18 step 3 
  print budget
  save budget

period 18 step 4 
  print budget
  save budget

period 18 step 5 
  print budget
  save head
  save budget

period 19 step 1 
  print budget
  save budget

period 19 step 2 
  print budget
  save budget

period 19 step 3 
  print budget
  save budget

period 19 step 4 
  print budget
  save budget

period 19 step 5 
  print budget
  save head
  save budget

period 20 step 1 
  print budget
  save budget

period 20 step 2 
  print budget
  save budget

period 20 step 3 
  print budget
  save budget

period 20 step 4 
  print budget
  save budget

period 20 step 5 
  print budget
  save head
  save budget

period 21 step 1 
  print budget
  save budget

period 21 step 2 
  print budget
  save budget

period 21 step 3 
  print budget
  save budget

period 21 step 4 
  print budget
  save budget

period 21 step 5 
  print budget
  save head
  save budget

period 22 step 1 
  print budget
  save budget

period 22 step 2 
  print budget
  save budget

period 22 step 3 
  print budget
  save budget

period 22 step 4 
  print budget
  save budget

period 22 step 5 
  print budget
  save head
  save budget

period 23 step 1 
  print budget
  save budget

period 23 step 2 
  print budget
  save budget

period 23 step 3 
  print budget
  save budget

period 23 step 4 
  print budget
  save budget

period 23 step 5 
  print budget
  save head
  save budget

period 24 step 1 
  print budget
  save budget

period 24 step 2 
  print budget
  save budget

period 24 step 3 
  print budget
  save budget

period 24 step 4 
  print budget
  save budget

period 24 step 5 
  print budget
  save head
  save budget

period 25 step 1 
  print budget
  save budget

period 25 step 2 
  print budget
  save budget

period 25 step 3 
  print budget
  save budget

period 25 step 4 
  print budget
  save budget

period 25 step 5 
  print budget
  save head
  save budget

period 26 step 1 
  print budget
  save budget

period 26 step 2 
  print budget
  save budget

period 26 step 3 
  print budget
  save budget

period 26 step 4 
  print budget
  save budget

period 26 step 5 
  print budget
  save head
  save budget

period 27 step 1 
  print budget
  save budget

period 27 step 2 
  print budget
  save budget

period 27 step 3 
  print budget
  save budget

period 27 step 4 
  print budget
  save budget

period 27 step 5 
  print budget
  save head
  save budget

period 28 step 1 
  print budget
  save budget

period 28 step 2 
  print budget
  save budget

period 28 step 3 
  print budget
  save budget

period 28 step 4 
  print budget
  save budget

period 28 step 5 
  print budget
  save head
  save budget

period 29 step 1 
  print budget
  save budget

period 29 step 2 
  print budget
  save budget

period 29 step 3 
  print budget
  save budget

period 29 step 4 
  print budget
  save budget

period 29 step 5 
  print budget
  save head
  save budget

period 30 step 1 
  print budget
  save budget

period 30 step 2 
  print budget
  save budget

period 30 step 3 
  print budget
  save budget

period 30 step 4 
  print budget
  save budget

period 30 step 5 
  print budget
  save head
  save budget

period 31 step 1 
  print budget
  save budget

period 31 step 2 
  print budget
  save budget

period 31 step 3 
  print budget
  save budget

period 31 step 4 
  print budget
  save budget

period 31 step 5 
  print budget
  save head
  save budget

period 32 step 1 
  print budget
  save budget

period 32 step 2 
  print budget
  save budget

period 32 step 3 
  print budget
  save budget

period 32 step 4 
  print budget
  save budget

period 32 step 5 
  print budget
  save head
  save budget

period 33 step 1 
  print budget
  save budget

period 33 step 2 
  print budget
  save budget

period 33 step 3 
  print budget
  save budget

period 33 step 4 
  print budget
  save budget

period 33 step 5 
  print budget
  save head
  save budget

period 34 step 1 
  print budget
  save budget

period 34 step 2 
  print budget
  save budget

period 34 step 3 
  print budget
  save budget

period 34 step 4 
  print budget
  save budget

period 34 step 5 
  print budget
  save head
  save budget

period 35 step 1 
  print budget
  save budget

period 35 step 2 
  print budget
  save budget

period 35 step 3 
  print budget
  save budget

period 35 step 4 
  print budget
  save budget

period 35 step 5 
  print budget
  save head
  save budget

period 36 step 1 
  print budget
  save budget

period 36 step 2 
  print budget
  save budget

period 36 step 3 
  print budget
  save budget

period 36 step 4 
  print budget
  save budget

period 36 step 5 
  print budget
  save head
  save budget

period 37 step 1 
  print budget
  save budget

period 37 step 2 
  print budget
  save budget

period 37 step 3 
  print budget
  save budget

period 37 step 4 
  print budget
  save budget

period 37 step 5 
  print budget
  save head
  save budget

period 38 step 1 
  print budget
  save budget

period 38 step 2 
  print budget
  save budget

period 38 step 3 
  print budget
  save budget

period 38 step 4 
  print budget
  save budget

period 38 step 5 
  print budget
  save head
  save budget

period 39 step 1 
  print budget
  save budget

period 39 step 2 
  print budget
  save budget

period 39 step 3 
  print budget
  save budget

period 39 step 4 
  print budget
  save budget

period 39 step 5 
  print budget
  save head
  save budget

period 40 step 1 
  print budget
  save budget

period 40 step 2 
  print budget
  save budget

period 40 step 3 
  print budget
  save budget

period 40 step 4 
  print budget
  save budget

period 40 step 5 
  print budget
  save head
  save budget

period 41 step 1 
  print budget
  save budget

period 41 step 2 
  print budget
  save budget

period 41 step 3 
  print budget
  save budget

period 41 step 4 
  print budget
  save budget

period 41 step 5 
  print budget
  save head
  save budget

period 42 step 1 
  print budget
  save budget

period 42 step 2 
  print budget
  save budget

period 42 step 3 
  print budget
  save budget

period 42 step 4 
  print budget
  save budget

period 42 step 5 
  print budget
  save head
  save budget

period 43 step 1 
  print budget
  save budget

period 43 step 2 
  print budget
  save budget

period 43 step 3 
  print budget
  save budget

period 43 step 4 
  print budget
  save budget

period 43 step 5 
  print budget
  save head
  save budget

period 44 step 1 
  print budget
  save budget

period 44 step 2 
  print budget
  save budget

period 44 step 3 
  print budget
  save budget

period 44 step 4 
  print budget
  save budget

period 44 step 5 
  print budget
  save head
  save budget

period 45 step 1 
  print budget
  save budget

period 45 step 2 
  print budget
  save budget

period 45 step 3 
  print budget
  save budget

period 45 step 4 
  print budget
  save budget

period 45 step 5 
  print budget
  save head
  save budget

period 46 step 1 
  print budget
  save budget

period 46 step 2 
  print budget
  save budget

period 46 step 3 
  print budget
  save budget

period 46 step 4 
  print budget
  save budget

period 46 step 5 
  print budget
  save head
  save budget

period 47 step 1 
  print budget
  save budget

period 47 step 2 
  print budget
  save budget

period 47 step 3 
  print budget
  save budget

period 47 step 4 
  print budget
  save budget

period 47 step 5 
  print budget
  save head
  save budget

period 48 step 1 
  print budget
  save budget

period 48 step 2 
  print budget
  save budget

period 48 step 3 
  print budget
  save budget

period 48 step 4 
  print budget
  save budget

period 48 step 5 
  print budget
  save head
  save budget

period 49 step 1 
  print budget
  save budget

period 49 step 2 
  print budget
  save budget

period 49 step 3 
  print budget
  save budget

period 49 step 4 
  print budget
  save budget

period 49 step 5 
  print budget
  save head
  save budget

period 50 step 1 
  print budget
  save budget

period 50 step 2 
  print budget
  save budget

period 50 step 3 
  print budget
  save budget

period 50 step 4 
  print budget
  save budget

period 50 step 5 
  print budget
  save head
  save budget

period 51 step 1 
  print budget
  save budget

period 51 step 2 
  print budget
  save budget

period 51 step 3 
  print budget
  save budget

period 51 step 4 
  print budget
  save budget

period 51 step 5 
  print budget
  save head
  save budget

period 52 step 1 
  print budget
  save budget

period 52 step 2 
  print budget
  save budget

period 52 step 3 
  print budget
  save budget

period 52 step 4 
  print budget
  save budget

period 52 step 5 
  print budget
  save head
  save budget

period 53 step 1 
  print budget
  save budget

period 53 step 2 
  print budget
  save budget

period 53 step 3 
  print budget
  save budget

period 53 step 4 
  print budget
  save budget

period 53 step 5 
  print budget
  save head
  save budget

period 54 step 1 
  print budget
  save budget

period 54 step 2 
  print budget
  save budget

period 54 step 3 
  print budget
  save budget

period 54 step 4 
  print budget
  save budget

period 54 step 5 
  print budget
  save head
  save budget

period 55 step 1 
  print budget
  save budget

period 55 step 2 
  print budget
  save budget

period 55 step 3 
  print budget
  save budget

period 55 step 4 
  print budget
  save budget

period 55 step 5 
  print budget
  save head
  save budget

period 56 step 1 
  print budget
  save budget

period 56 step 2 
  print budget
  save budget

period 56 step 3 
  print budget
  save budget

period 56 step 4 
  print budget
  save budget

period 56 step 5 
  print budget
  save head
  save budget

period 57 step 1 
  print budget
  save budget

period 57 step 2 
  print budget
  save budget

period 57 step 3 
  print budget
  save budget

period 57 step 4 
  print budget
  save budget

period 57 step 5 
  print budget
  save head
  save budget

period 58 step 1 
  print budget
  save budget

period 58 step 2 
  print budget
  save budget

period 58 step 3 
  print budget
  save budget

period 58 step 4 
  print budget
  save budget

period 58 step 5 
  print budget
  save head
  save budget

period 59 step 1 
  print budget
  save budget

period 59 step 2 
  print budget
  save budget

period 59 step 3 
  print budget
  save budget

period 59 step 4 
  print budget
  save budget

period 59 step 5 
  print budget
  save head
  save budget

period 60 step 1 
  print budget
  save budget

period 60 step 2 
  print budget
  save budget

period 60 step 3 
  print budget
  save budget

period 60 step 4 
  print budget
  save budget

period 60 step 5 
  print budget
  save head
  save budget

period 61 step 1 
  print budget
  save budget

period 61 step 2 
  print budget
  save budget

period 61 step 3 
  print budget
  save budget

period 61 step 4 
  print budget
  save budget

period 61 step 5 
  print budget
  save head
  save budget

period 62 step 1 
  print budget
  save budget

period 62 step 2 
  print budget
  save budget

period 62 step 3 
  print budget
  save budget

period 62 step 4 
  print budget
  save budget

period 62 step 5 
  print budget
  save head
  save budget

period 63 step 1 
  print budget
  save budget

period 63 step 2 
  print budget
  save budget

period 63 step 3 
  print budget
  save budget

period 63 step 4 
  print budget
  save budget

period 63 step 5 
  print budget
  save head
  save budget

period 64 step 1 
  print budget
  save budget

period 64 step 2 
  print budget
  save budget

period 64 step 3 
  print budget
  save budget

period 64 step 4 
  print budget
  save budget

period 64 step 5 
  print budget
  save head
  save budget

period 65 step 1 
  print budget
  save budget

period 65 step 2 
  print budget
  save budget

period 65 step 3 
  print budget
  save budget

period 65 step 4 
  print budget
  save budget

period 65 step 5 
  print budget
  save head
  save budget

period 66 step 1 
  print budget
  save budget

period 66 step 2 
  print budget
  save budget

period 66 step 3 
  print budget
  save budget

period 66 step 4 
  print budget
  save budget

period 66 step 5 
  print budget
  save head
  save budget

period 67 step 1 
  print budget
  save budget

period 67 step 2 
  print budget
  save budget

period 67 step 3 
  print budget
  save budget

period 67 step 4 
  print budget
  save budget

period 67 step 5 
  print budget
  save head
  save budget

period 68 step 1 
  print budget
  save budget

period 68 step 2 
  print budget
  save budget

period 68 step 3 
  print budget
  save budget

period 68 step 4 
  print budget
  save budget

period 68 step 5 
  print budget
  save head
  save budget

period 69 step 1 
  print budget
  save budget

period 69 step 2 
  print budget
  save budget

period 69 step 3 
  print budget
  save budget

period 69 step 4 
  print budget
  save budget

period 69 step 5 
  print budget
  save head
  save budget

period 70 step 1 
  print budget
  save budget

period 70 step 2 
  print budget
  save budget

period 70 step 3 
  print budget
  save budget

period 70 step 4 
  print budget
  save budget

period 70 step 5 
  print budget
  save head
  save budget

period 71 step 1 
  print budget
  save budget

period 71 step 2 
  print budget
  save budget

period 71 step 3 
  print budget
  save budget

period 71 step 4 
  print budget
  save budget

period 71 step 5 
  print budget
  save head
  save budget

period 72 step 1 
  print budget
  save budget

period 72 step 2 
  print budget
  save budget

period 72 step 3 
  print budget
  save budget

period 72 step 4 
  print budget
  save budget

period 72 step 5 
  print budget
  save head
  save budget

period 73 step 1 
  print budget
  save budget

period 73 step 2 
  print budget
  save budget

period 73 step 3 
  print budget
  save budget

period 73 step 4 
  print budget
  save budget

period 73 step 5 
  print budget
  save head
  save budget

period 74 step 1 
  print budget
  save budget

period 74 step 2 
  print budget
  save budget

period 74 step 3 
  print budget
  save budget

period 74 step 4 
  print budget
  save budget

period 74 step 5 
  print budget
  save head
  save budget

period 75 step 1 
  print budget
  save budget

period 75 step 2 
  print budget
  save budget

period 75 step 3 
  print budget
  save budget

period 75 step 4 
  print budget
  save budget

period 75 step 5 
  print budget
  save head
  save budget

period 76 step 1 
  print budget
  save budget

period 76 step 2 
  print budget
  save budget

period 76 step 3 
  print budget
  save budget

period 76 step 4 
  print budget
  save budget

period 76 step 5 
  print budget
  save head
  save budget

period 77 step 1 
  print budget
  save budget

period 77 step 2 
  print budget
  save budget

period 77 step 3 
  print budget
  save budget

period 77 step 4 
  print budget
  save budget

period 77 step 5 
  print budget
  save head
  save budget

period 78 step 1 
  print budget
  save budget

period 78 step 2 
  print budget
  save budget

period 78 step 3 
  print budget
  save budget

period 78 step 4 
  print budget
  save budget

period 78 step 5 
  print budget
  save head
  save budget

period 79 step 1 
  print budget
  save budget

period 79 step 2 
  print budget
  save budget

period 79 step 3 
  print budget
  save budget

period 79 step 4 
  print budget
  save budget

period 79 step 5 
  print budget
  save head
  save budget

period 80 step 1 
  print budget
  save budget

period 80 step 2 
  print budget
  save budget

period 80 step 3 
  print budget
  save budget

period 80 step 4 
  print budget
  save budget

period 80 step 5 
  print budget
  save head
  save budget

period 81 step 1 
  print budget
  save budget

period 81 step 2 
  print budget
  save budget

period 81 step 3 
  print budget
  save budget

period 81 step 4 
  print budget
  save budget

period 81 step 5 
  print budget
  save head
  save budget

period 82 step 1 
  print budget
  save budget

period 82 step 2 
  print budget
  save budget

period 82 step 3 
  print budget
  save budget

period 82 step 4 
  print budget
  save budget

period 82 step 5 
  print budget
  save head
  save budget

period 83 step 1 
  print budget
  save budget

period 83 step 2 
  print budget
  save budget

period 83 step 3 
  print budget
  save budget

period 83 step 4 
  print budget
  save budget

period 83 step 5 
  print budget
  save head
  save budget

period 84 step 1 
  print budget
  save budget

period 84 step 2 
  print budget
  save budget

period 84 step 3 
  print budget
  save budget

period 84 step 4 
  print budget
  save budget

period 84 step 5 
  print budget
  save head
  save budget

period 85 step 1 
  print budget
  save budget

period 85 step 2 
  print budget
  save budget

period 85 step 3 
  print budget
  save budget

period 85 step 4 
  print budget
  save budget

period 85 step 5 
  print budget
  save head
  save budget

period 86 step 1 
  print budget
  save budget

period 86 step 2 
  print budget
  save budget

period 86 step 3 
  print budget
  save budget

period 86 step 4 
  print budget
  save budget

period 86 step 5 
  print budget
  save head
  save budget

period 87 step 1 
  print budget
  save budget

period 87 step 2 
  print budget
  save budget

period 87 step 3 
  print budget
  save budget

period 87 step 4 
  print budget
  save budget

period 87 step 5 
  print budget
  save head
  save budget

period 88 step 1 
  print budget
  save budget

period 88 step 2 
  print budget
  save budget

period 88 step 3 
  print budget
  save budget

period 88 step 4 
  print budget
  save budget

period 88 step 5 
  print budget
  save head
  save budget

period 89 step 1 
  print budget
  save budget

period 89 step 2 
  print budget
  save budget

period 89 step 3 
  print budget
  save budget

period 89 step 4 
  print budget
  save budget

period 89 step 5 
  print budget
  save head
  save budget

period 90 step 1 
  print budget
  save budget

period 90 step 2 
  print budget
  save budget

period 90 step 3 
  print budget
  save budget

period 90 step 4 
  print budget
  save budget

period 90 step 5 
  print budget
  save head
  save budget

period 91 step 1 
  print budget
  save budget

period 91 step 2 
  print budget
  save budget

period 91 step 3 
  print budget
  save budget

period 91 step 4 
  print budget
  save budget

period 91 step 5 
  print budget
  save head
  save budget

period 92 step 1 
  print budget
  save budget

period 92 step 2 
  print budget
  save budget

period 92 step 3 
  print budget
  save budget

period 92 step 4 
  print budget
  save budget

period 92 step 5 
  print budget
  save head
  save budget

period 93 step 1 
  print budget
  save budget

period 93 step 2 
  print budget
  save budget

period 93 step 3 
  print budget
  save budget

period 93 step 4 
  print budget
  save budget

period 93 step 5 
  print budget
  save head
  save budget

period 94 step 1 
  print budget
  save budget

period 94 step 2 
  print budget
  save budget

period 94 step 3 
  print budget
  save budget

period 94 step 4 
  print budget
  save budget

period 94 step 5 
  print budget
  save head
  save budget

period 95 step 1 
  print budget
  save budget

period 95 step 2 
  print budget
  save budget

period 95 step 3 
  print budget
  save budget

period 95 step 4 
  print budget
  save budget

period 95 step 5 
  print budget
  save head
  save budget

period 96 step 1 
  print budget
  save budget

period 96 step 2 
  print budget
  save budget

period 96 step 3 
  print budget
  save budget

period 96 step 4 
  print budget
  save budget

period 96 step 5 
  print budget
  save head
  save budget

period 97 step 1 
  print budget
  save budget

period 97 step 2 
  print budget
  save budget

period 97 step 3 
  print budget
  save budget

period 97 step 4 
  print budget
  save budget

period 97 step 5 
  print budget
  save head
  save budget

period 98 step 1 
  print budget
  save budget

period 98 step 2 
  print budget
  save budget

period 98 step 3 
  print budget
  save budget

period 98 step 4 
  print budget
  save budget

period 98 step 5 
  print budget
  save head
  save budget

period 99 step 1 
  print budget
  save budget

period 99 step 2 
  print budget
  save budget

period 99 step 3 
  print budget
  save budget

period 99 step 4 
  print budget
  save budget

period 99 step 5 
  print budget
  save head
  save budget

period 100 step 1 
  print budget
  save budget

period 100 step 2 
  print budget
  save budget

period 100 step 3 
  print budget
  save budget

period 100 step 4 
  print budget
  save budget

period 100 step 5 
  print budget
  save head
  save budget

period 101 step 1 
  print budget
  save budget

period 101 step 2 
  print budget
  save budget

period 101 step 3 
  print budget
  save budget

period 101 step 4 
  print budget
  save budget

period 101 step 5 
  print budget
  save head
  save budget

period 102 step 1 
  print budget
  save budget

period 102 step 2 
  print budget
  save budget

period 102 step 3 
  print budget
  save budget

period 102 step 4 
  print budget
  save budget

period 102 step 5 
  print budget
  save head
  save budget

period 103 step 1 
  print budget
  save budget

period 103 step 2 
  print budget
  save budget

period 103 step 3 
  print budget
  save budget

period 103 step 4 
  print budget
  save budget

period 103 step 5 
  print budget
  save head
  save budget

period 104 step 1 
  print budget
  save budget

period 104 step 2 
  print budget
  save budget

period 104 step 3 
  print budget
  save budget

period 104 step 4 
  print budget
  save budget

period 104 step 5 
  print budget
  save head
  save budget

period 105 step 1 
  print budget
  save budget

period 105 step 2 
  print budget
  save budget

period 105 step 3 
  print budget
  save budget

period 105 step 4 
  print budget
  save budget

period 105 step 5 
  print budget
  save head
  save budget

period 106 step 1 
  print budget
  save budget

period 106 step 2 
  print budget
  save budget

period 106 step 3 
  print budget
  save budget

period 106 step 4 
  print budget
  save budget

period 106 step 5 
  print budget
  save head
  save budget

period 107 step 1 
  print budget
  save budget

period 107 step 2 
  print budget
  save budget

period 107 step 3 
  print budget
  save budget

period 107 step 4 
  print budget
  save budget

period 107 step 5 
  print budget
  save head
  save budget

period 108 step 1 
  print budget
  save budget

period 108 step 2 
  print budget
  save budget

period 108 step 3 
  print budget
  save budget

period 108 step 4 
  print budget
  save budget

period 108 step 5 
  print budget
  save head
  save budget

period 109 step 1 
  print budget
  save budget

period 109 step 2 
  print budget
  save budget

period 109 step 3 
  print budget
  save budget

period 109 step 4 
  print budget
  save budget

period 109 step 5 
  print budget
  save head
  save budget

period 110 step 1 
  print budget
  save budget

period 110 step 2 
  print budget
  save budget

period 110 step 3 
  print budget
  save budget

period 110 step 4 
  print budget
  save budget

period 110 step 5 
  print budget
  save head
  save budget

period 111 step 1 
  print budget
  save budget

period 111 step 2 
  print budget
  save budget

period 111 step 3 
  print budget
  save budget

period 111 step 4 
  print budget
  save budget

period 111 step 5 
  print budget
  save head
  save budget

period 112 step 1 
  print budget
  save budget

period 112 step 2 
  print budget
  save budget

period 112 step 3 
  print budget
  save budget

period 112 step 4 
  print budget
  save budget

period 112 step 5 
  print budget
  save head
  save budget

period 113 step 1 
  print budget
  save budget

period 113 step 2 
  print budget
  save budget

period 113 step 3 
  print budget
  save budget

period 113 step 4 
  print budget
  save budget

period 113 step 5 
  print budget
  save head
  save budget

period 114 step 1 
  print budget
  save budget

period 114 step 2 
  print budget
  save budget

period 114 step 3 
  print budget
  save budget

period 114 step 4 
  print budget
  save budget

period 114 step 5 
  print budget
  save head
  save budget

period 115 step 1 
  print budget
  save budget

period 115 step 2 
  print budget
  save budget

period 115 step 3 
  print budget
  save budget

period 115 step 4 
  print budget
  save budget

period 115 step 5 
  print budget
  save head
  save budget

period 116 step 1 
  print budget
  save budget

period 116 step 2 
  print budget
  save budget

period 116 step 3 
  print budget
  save budget

period 116 step 4 
  print budget
  save budget

period 116 step 5 
  print budget
  save head
  save budget

period 117 step 1 
  print budget
  save budget

period 117 step 2 
  print budget
  save budget

period 117 step 3 
  print budget
  save budget

period 117 step 4 
  print budget
  save budget

period 117 step 5 
  print budget
  save head
  save budget

period 118 step 1 
  print budget
  save budget

period 118 step 2 
  print budget
  save budget

period 118 step 3 
  print budget
  save budget

period 118 step 4 
  print budget
  save budget

period 118 step 5 
  print budget
  save head
  save budget

period 119 step 1 
  print budget
  save budget

period 119 step 2 