# RIV package for MODFLOW-2005 generated by Flopy 3.3.5
      5315        50 noprint
      5315         0 # stress period 1
         open/close .\RIV_0000.dat
      5315         0 # stress period 2
         open/close .\RIV_0001.dat
      5315         0 # stress period 3
         open/close .\RIV_0002.dat
      5315         0 # stress period 4
         open/close .\RIV_0003.dat
      5315         0 # stress period 5
         open/close .\RIV_0004.dat
      5315         0 # stress period 6
         open/close .\RIV_0005.dat
      5315         0 # stress period 7
         open/close .\RIV_0006.dat
      5315         0 # stress period 8
         open/close .\RIV_0007.dat
      5315         0 # stress period 9
         open/close .\RIV_0008.dat
      5315         0 # stress period 10
         open/close .\RIV_0009.dat
      5315         0 # stress period 11
         open/close .\RIV_0010.dat
      5315         0 # stress period 12
         open/close .\RIV_0011.dat
      5315         0 # stress period 13
         open/close .\RIV_0012.dat
      5315         0 # stress period 14
         open/close .\RIV_0013.dat
      5315         0 # stress period 15
         open/close .\RIV_0014.dat
      5315         0 # stress period 16
         open/close .\RIV_0015.dat
      5315         0 # stress period 17
         open/close .\RIV_0016.dat
      5315         0 # stress period 18
         open/close .\RIV_0017.dat
      5315         0 # stress period 19
         open/close .\RIV_0018.dat
      5315         0 # stress period 20
         open/close .\RIV_0019.dat
      5315         0 # stress period 21
         open/close .\RIV_0020.dat
      5315         0 # stress period 22
         open/close .\RIV_0021.dat
      5315         0 # stress period 23
         open/close .\RIV_0022.dat
      5315         0 # stress period 24
         open/close .\RIV_0023.dat
      5315         0 # stress period 25
         open/close .\RIV_0024.dat
      5315         0 # stress period 26
         open/close .\RIV_0025.dat
      5315         0 # stress period 27
         open/close .\RIV_0026.dat
      5315         0 # stress period 28
         open/close .\RIV_0027.dat
      5315         0 # stress period 29
         open/close .\RIV_0028.dat
      5315         0 # stress period 30
         open/close .\RIV_0029.dat
      5315         0 # stress period 31
         open/close .\RIV_0030.dat
      5315         0 # stress period 32
         open/close .\RIV_0031.dat
      5315         0 # stress period 33
         open/close .\RIV_0032.dat
      5315         0 # stress period 34
         open/close .\RIV_0033.dat
      5315         0 # stress period 35
         open/close .\RIV_0034.dat
      5315         0 # stress period 36
         open/close .\RIV_0035.dat
      5315         0 # stress period 37
         open/close .\RIV_0036.dat
      5315         0 # stress period 38
         open/close .\RIV_0037.dat
      5315         0 # stress period 39
         open/close .\RIV_0038.dat
      5315         0 # stress period 40
         open/close .\RIV_0039.dat
      5315         0 # stress period 41
         open/close .\RIV_0040.dat
      5315         0 # stress period 42
         open/close .\RIV_0041.dat
      5315         0 # stress period 43
         open/close .\RIV_0042.dat
      5315         0 # stress period 44
         open/close .\RIV_0043.dat
      5315         0 # stress period 45
         open/close .\RIV_0044.dat
      5315         0 # stress period 46
         open/close .\RIV_0045.dat
      5315         0 # stress period 47
         open/close .\RIV_0046.dat
      5315         0 # stress period 48
         open/close .\RIV_0047.dat
      5315         0 # stress period 49
         open/close .\RIV_0048.dat
      5315         0 # stress period 50
         open/close .\RIV_0049.dat
      5315         0 # stress period 51
         open/close .\RIV_0050.dat
      5315         0 # stress period 52
         open/close .\RIV_0051.dat
      5315         0 # stress period 53
         open/close .\RIV_0052.dat
      5315         0 # stress period 54
         open/close .\RIV_0053.dat
      5315         0 # stress period 55
         open/close .\RIV_0054.dat
      5315         0 # stress period 56
         open/close .\RIV_0055.dat
      5315         0 # stress period 57
         open/close .\RIV_0056.dat
      5315         0 # stress period 58
         open/close .\RIV_0057.dat
      5315         0 # stress period 59
         open/close .\RIV_0058.dat
      5315         0 # stress period 60
         open/close .\RIV_0059.dat
      5315         0 # stress period 61
         open/close .\RIV_0060.dat
      5315         0 # stress period 62
         open/close .\RIV_0061.dat
      5315         0 # stress period 63
         open/close .\RIV_0062.dat
      5315         0 # stress period 64
         open/close .\RIV_0063.dat
      5315         0 # stress period 65
         open/close .\RIV_0064.dat
      5315         0 # stress period 66
         open/close .\RIV_0065.dat
      5315         0 # stress period 67
         open/close .\RIV_0066.dat
      5315         0 # stress period 68
         open/close .\RIV_0067.dat
      5315         0 # stress period 69
         open/close .\RIV_0068.dat
      5315         0 # stress period 70
         open/close .\RIV_0069.dat
      5315         0 # stress period 71
         open/close .\RIV_0070.dat
      5315         0 # stress period 72
         open/close .\RIV_0071.dat
      5315         0 # stress period 73
         open/close .\RIV_0072.dat
      5315         0 # stress period 74
         open/close .\RIV_0073.dat
      5315         0 # stress period 75
         open/close .\RIV_0074.dat
      5315         0 # stress period 76
         open/close .\RIV_0075.dat
      5315         0 # stress period 77
         open/close .\RIV_0076.dat
      5315         0 # stress period 78
         open/close .\RIV_0077.dat
      5315         0 # stress period 79
         open/close .\RIV_0078.dat
      5315         0 # stress period 80
         open/close .\RIV_0079.dat
      5315         0 # stress period 81
         open/close .\RIV_0080.dat
      5315         0 # stress period 82
         open/close .\RIV_0081.dat
      5315         0 # stress period 83
         open/close .\RIV_0082.dat
      5315         0 # stress period 84
         open/close .\RIV_0083.dat
      5315         0 # stress period 85
         open/close .\RIV_0084.dat
      5315         0 # stress period 86
         open/close .\RIV_0085.dat
      5315         0 # stress period 87
         open/close .\RIV_0086.dat
      5315         0 # stress period 88
         open/close .\RIV_0087.dat
      5315         0 # stress period 89
         open/close .\RIV_0088.dat
      5315         0 # stress period 90
         open/close .\RIV_0089.dat
      5315         0 # stress period 91
         open/close .\RIV_0090.dat
      5315         0 # stress period 92
         open/close .\RIV_0091.dat
      5315         0 # stress period 93
         open/close .\RIV_0092.dat
      5315         0 # stress period 94
         open/close .\RIV_0093.dat
      5315         0 # stress period 95
         open/close .\RIV_0094.dat
      5315         0 # stress period 96
         open/close .\RIV_0095.dat
      5315         0 # stress period 97
         open/close .\RIV_0096.dat
      5315         0 # stress period 98
         open/close .\RIV_0097.dat
      5315         0 # stress period 99
         open/close .\RIV_0098.dat
      5315         0 # stress period 100
         open/close .\RIV_0099.dat
      5315         0 # stress period 101
         open/close .\RIV_0100.dat
      5315         0 # stress period 102
         open/close .\RIV_0101.dat
      5315         0 # stress period 103
         open/close .\RIV_0102.dat
      5315         0 # stress period 104
         open/close .\RIV_0103.dat
      5315         0 # stress period 105
         open/close .\RIV_0104.dat
      5315         0 # stress period 106
         open/close .\RIV_0105.dat
      5315         0 # stress period 107
         open/close .\RIV_0106.dat
      5315         0 # stress period 108
         open/close .\RIV_0107.dat
      5315         0 # stress period 109
         open/close .\RIV_0108.dat
      5315         0 # stress period 110
         open/close .\RIV_0109.dat
      5315         0 # stress period 111
         open/close .\RIV_0110.dat
      5315         0 # stress period 112
         open/close .\RIV_0111.dat
      5315         0 # stress period 113
         open/close .\RIV_0112.dat
      5315         0 # stress period 114
         open/close .\RIV_0113.dat
      5315         0 # stress period 115
         open/close .\RIV_0114.dat
      5315         0 # stress period 116
         open/close .\RIV_0115.dat
      5315         0 # stress period 117
         open/close .\RIV_0116.dat
      5315         0 # stress period 118
         open/close .\RIV_0117.dat
      5315         0 # stress period 119
         open/close .\RIV_0118.dat
      5315         0 # stress period 120
         open/close .\RIV_0119.dat
      5315         0 # stress period 121
         open/close .\RIV_0120.dat
      5315         0 # stress period 122
         open/close .\RIV_0121.dat
      5315         0 # stress period 123
         open/close .\RIV_0122.dat
      5315         0 # stress period 124
         open/close .\RIV_0123.dat
      5315         0 # stress period 125
         open/close .\RIV_0124.dat
      5315         0 # stress period 126
         open/close .\RIV_0125.dat
      5315         0 # stress period 127
         open/close .\RIV_0126.dat
      5315         0 # stress period 128
         open/close .\RIV_0127.dat
      5315         0 # stress period 129
         open/close .\RIV_0128.dat
      5315         0 # stress period 130
         open/close .\RIV_0129.dat
      5315         0 # stress period 131
         open/close .\RIV_0130.dat
      5315         0 # stress period 132
         open/close .\RIV_0131.dat
      5315         0 # stress period 133
         open/close .\RIV_0132.dat
      5315         0 # stress period 134
         open/close .\RIV_0133.dat
      5315         0 # stress period 135
         open/close .\RIV_0134.dat
      5315         0 # stress period 136
         open/close .\RIV_0135.dat
      5315         0 # stress period 137
         open/close .\RIV_0136.dat
      5315         0 # stress period 138
         open/close .\RIV_0137.dat
      5315         0 # stress period 139
         open/close .\RIV_0138.dat
      5315         0 # stress period 140
         open/close .\RIV_0139.dat
      5315         0 # stress period 141
         open/close .\RIV_0140.dat
      5315         0 # stress period 142
         open/close .\RIV_0141.dat
      5315         0 # stress period 143
         open/close .\RIV_0142.dat
      5315         0 # stress period 144
         open/close .\RIV_0143.dat
      5315         0 # stress period 145
         open/close .\RIV_0144.dat
      5315         0 # stress period 146
         open/close .\RIV_0145.dat
      5315         0 # stress period 147
         open/close .\RIV_0146.dat
      5315         0 # stress period 148
         open/close .\RIV_0147.dat
      5315         0 # stress period 149
         open/close .\RIV_0148.dat
      5315         0 # stress period 150
         open/close .\RIV_0149.dat
      5315         0 # stress period 151
         open/close .\RIV_0150.dat
      5315         0 # stress period 152
         open/close .\RIV_0151.dat
      5315         0 # stress period 153
         open/close .\RIV_0152.dat
      5315         0 # stress period 154
         open/close .\RIV_0153.dat
      5315         0 # stress period 155
         open/close .\RIV_0154.dat
      5315         0 # stress period 156
         open/close .\RIV_0155.dat
      5315         0 # stress period 157
         open/close .\RIV_0156.dat
      5315         0 # stress period 158
         open/close .\RIV_0157.dat
      5315         0 # stress period 159
         open/close .\RIV_0158.dat
      5315         0 # stress period 160
         open/close .\RIV_0159.dat
      5315         0 # stress period 161
         open/close .\RIV_0160.dat
      5315         0 # stress period 162
         open/close .\RIV_0161.dat
      5315         0 # stress period 163
         open/close .\RIV_0162.dat
      5315         0 # stress period 164
         open/close .\RIV_0163.dat
      5315         0 # stress period 165
         open/close .\RIV_0164.dat
      5315         0 # stress period 166
         open/close .\RIV_0165.dat
      5315         0 # stress period 167
         open/close .\RIV_0166.dat
      5315         0 # stress period 168
         open/close .\RIV_0167.dat
      5315         0 # stress period 169
         open/close .\RIV_0168.dat
      5315         0 # stress period 170
         open/close .\RIV_0169.dat
      5315         0 # stress period 171
         open/close .\RIV_0170.dat
      5315         0 # stress period 172
         open/close .\RIV_0171.dat
      5315         0 # stress period 173
         open/close .\RIV_0172.dat
      5315         0 # stress period 174
         open/close .\RIV_0173.dat
      5315         0 # stress period 175
         open/close .\RIV_0174.dat
      5315         0 # stress period 176
         open/close .\RIV_0175.dat
      5315         0 # stress period 177
         open/close .\RIV_0176.dat
      5315         0 # stress period 178
         open/close .\RIV_0177.dat
      5315         0 # stress period 179
         open/close .\RIV_0178.dat
      5315         0 # stress period 180
         open/close .\RIV_0179.dat
      5315         0 # stress period 181
         open/close .\RIV_0180.dat
      5315         0 # stress period 182
         open/close .\RIV_0181.dat
      5315         0 # stress period 183
         open/close .\RIV_0182.dat
      5315         0 # stress period 184
         open/close .\RIV_0183.dat
      5315         0 # stress period 185
         open/close .\RIV_0184.dat
      5315         0 # stress period 186
         open/close .\RIV_0185.dat
      5315         0 # stress period 187
         open/close .\RIV_0186.dat
      5315         0 # stress period 188
         open/close .\RIV_0187.dat
      5315         0 # stress period 189
         open/close .\RIV_0188.dat
      5315         0 # stress period 190
         open/close .\RIV_0189.dat
      5315         0 # stress period 191
         open/close .\RIV_0190.dat
      5315         0 # stress period 192
         open/close .\RIV_0191.dat
      5315         0 # stress period 193
         open/close .\RIV_0192.dat
      5315         0 # stress period 194
         open/close .\RIV_0193.dat
      5315         0 # stress period 195
         open/close .\RIV_0194.dat
      5315         0 # stress period 196
         open/close .\RIV_0195.dat
      5315         0 # stress period 197
         open/close .\RIV_0196.dat
      5315         0 # stress period 198
         open/close .\RIV_0197.dat
      5315         0 # stress period 199
         open/close .\RIV_0198.dat
      5315         0 # stress period 200
         open/close .\RIV_0199.dat
      5315         0 # stress period 201
         open/close .\RIV_0200.dat
      5315         0 # stress period 202
         open/close .\RIV_0201.dat
      5315         0 # stress period 203
         open/close .\RIV_0202.dat
      5315         0 # stress period 204
         open/close .\RIV_0203.dat
      5315         0 # stress period 205
         open/close .\RIV_0204.dat
      5315         0 # stress period 206
         open/close .\RIV_0205.dat
      5315         0 # stress period 207
         open/close .\RIV_0206.dat
      5315         0 # stress period 208
         open/close .\RIV_0207.dat
      5315         0 # stress period 209
         open/close .\RIV_0208.dat
      5315         0 # stress period 210
         open/close .\RIV_0209.dat
      5315         0 # stress period 211
         open/close .\RIV_0210.dat
      5315         0 # stress period 212
         open/close .\RIV_0211.dat
      5315         0 # stress period 213
         open/close .\RIV_0212.dat
      5315         0 # stress period 214
         open/close .\RIV_0213.dat
      5315         0 # stress period 215
         open/close .\RIV_0214.dat
      5315         0 # stress period 216
         open/close .\RIV_0215.dat
      5315         0 # stress period 217
         open/close .\RIV_0216.dat
      5315         0 # stress period 218
         open/close .\RIV_0217.dat
      5315         0 # stress period 219
         open/close .\RIV_0218.dat
      5315         0 # stress period 220
         open/close .\RIV_0219.dat
      5315         0 # stress period 221
         open/close .\RIV_0220.dat
      5315         0 # stress period 222
         open/close .\RIV_0221.dat
      5315         0 # stress period 223
         open/close .\RIV_0222.dat
      5315         0 # stress period 224
         open/close .\RIV_0223.dat
      5315         0 # stress period 225
         open/close .\RIV_0224.dat
      5315         0 # stress period 226
         open/close .\RIV_0225.dat
      5315         0 # stress period 227
         open/close .\RIV_0226.dat
      5315         0 # stress period 228
         open/close .\RIV_0227.dat
      5315         0 # stress period 229
         open/close .\RIV_0228.dat
      5315         0 # stress period 230
         open/close .\RIV_0229.dat
      5315         0 # stress period 231
         open/close .\RIV_0230.dat
      5315         0 # stress period 232
         open/close .\RIV_0231.dat
      5315         0 # stress period 233
         open/close .\RIV_0232.dat
      5315         0 # stress period 234
         open/close .\RIV_0233.dat
      5315         0 # stress period 235
         open/close .\RIV_0234.dat
      5315         0 # stress period 236
         open/close .\RIV_0235.dat
      5315         0 # stress period 237
         open/close .\RIV_0236.dat
      5315         0 # stress period 238
         open/close .\RIV_0237.dat
      5315         0 # stress period 239
         open/close .\RIV_0238.dat
      5315         0 # stress period 240
         open/close .\RIV_0239.dat
      5315         0 # stress period 241
         open/close .\RIV_0240.dat
      5315         0 # stress period 242
         open/close .\RIV_0241.dat
      5315         0 # stress period 243
         open/close .\RIV_0242.dat
      5315         0 # stress period 244
         open/close .\RIV_0243.dat
      5315         0 # stress period 245
         open/close .\RIV_0244.dat
      5315         0 # stress period 246
         open/close .\RIV_0245.dat
      5315         0 # stress period 247
         open/close .\RIV_0246.dat
      5315         0 # stress period 248
         open/close .\RIV_0247.dat
      5315         0 # stress period 249
         open/close .\RIV_0248.dat
      5315         0 # stress period 250
         open/close .\RIV_0249.dat
      5315         0 # stress period 251
         open/close .\RIV_0250.dat
      5315         0 # stress period 252
         open/close .\RIV_0251.dat
      5315         0 # stress period 253
         open/close .\RIV_0252.dat
      5315         0 # stress period 254
         open/close .\RIV_0253.dat
      5315         0 # stress period 255
         open/close .\RIV_0254.dat
      5315         0 # stress period 256
         open/close .\RIV_0255.dat
      5315         0 # stress period 257
         open/close .\RIV_0256.dat
      5315         0 # stress period 258
         open/close .\RIV_0257.dat
      5315         0 # stress period 259
         open/close .\RIV_0258.dat
      5315         0 # stress period 260
         open/close .\RIV_0259.dat
      5315         0 # stress period 261
         open/close .\RIV_0260.dat
      5315         0 # stress period 262
         open/close .\RIV_0261.dat
      5315         0 # stress period 263
         open/close .\RIV_0262.dat
      5315         0 # stress period 264
         open/close .\RIV_0263.dat
      5315         0 # stress period 265
         open/close .\RIV_0264.dat
      5315         0 # stress period 266
         open/close .\RIV_0265.dat
      5315         0 # stress period 267
         open/close .\RIV_0266.dat
      5315         0 # stress period 268
         open/close .\RIV_0267.dat
      5315         0 # stress period 269
         open/close .\RIV_0268.dat
      5315         0 # stress period 270
         open/close .\RIV_0269.dat
      5315         0 # stress period 271
         open/close .\RIV_0270.dat
      5315         0 # stress period 272
         open/close .\RIV_0271.dat
      5315         0 # stress period 273
         open/close .\RIV_0272.dat
      5315         0 # stress period 274
         open/close .\RIV_0273.dat
      5315         0 # stress period 275
         open/close .\RIV_0274.dat
      5315         0 # stress period 276
         open/close .\RIV_0275.dat
      5315         0 # stress period 277
         open/close .\RIV_0276.dat
      5315         0 # stress period 278
         open/close .\RIV_0277.dat
      5315         0 # stress period 279
         open/close .\RIV_0278.dat
      5315         0 # stress period 280
         open/close .\RIV_0279.dat
      5315         0 # stress period 281
         open/close .\RIV_0280.dat
      5315         0 # stress period 282
         open/close .\RIV_0281.dat
      5315         0 # stress period 283
         open/close .\RIV_0282.dat
      5315         0 # stress period 284
         open/close .\RIV_0283.dat
      5315         0 # stress period 285
         open/close .\RIV_0284.dat
      5315         0 # stress period 286
         open/close .\RIV_0285.dat
      5315         0 # stress period 287
         open/close .\RIV_0286.dat
      5315         0 # stress period 288
         open/close .\RIV_0287.dat
      5315         0 # stress period 289
         open/close .\RIV_0288.dat
      5315         0 # stress period 290
         open/close .\RIV_0289.dat
      5315         0 # stress period 291
         open/close .\RIV_0290.dat
      5315         0 # stress period 292
         open/close .\RIV_0291.dat
      5315         0 # stress period 293
         open/close .\RIV_0292.dat
      5315         0 # stress period 294
         open/close .\RIV_0293.dat
      5315         0 # stress period 295
         open/close .\RIV_0294.dat
      5315         0 # stress period 296
         open/close .\RIV_0295.dat
      5315         0 # stress period 297
         open/close .\RIV_0296.dat
      5315         0 # stress period 298
         open/close .\RIV_0297.dat
      5315         0 # stress period 299
         open/close .\RIV_0298.dat
      5315         0 # stress period 300
         open/close .\RIV_0299.dat
      5315         0 # stress period 301
         open/close .\RIV_0300.dat
      5315         0 # stress period 302
         open/close .\RIV_0301.dat
      5315         0 # stress period 303
         open/close .\RIV_0302.dat
      5315         0 # stress period 304
         open/close .\RIV_0303.dat
      5315         0 # stress period 305
         open/close .\RIV_0304.dat
      5315         0 # stress period 306
         open/close .\RIV_0305.dat
      5315         0 # stress period 307
         open/close .\RIV_0306.dat
      5315         0 # stress period 308
         open/close .\RIV_0307.dat
      5315         0 # stress period 309
         open/close .\RIV_0308.dat
      5315         0 # stress period 310
         open/close .\RIV_0309.dat
      5315         0 # stress period 311
         open/close .\RIV_0310.dat
      5315         0 # stress period 312
         open/close .\RIV_0311.dat
      5315         0 # stress period 313
         open/close .\RIV_0312.dat
      5315         0 # stress period 314
         open/close .\RIV_0313.dat
      5315         0 # stress period 315
         open/close .\RIV_0314.dat
      5315         0 # stress period 316
         open/close .\RIV_0315.dat
      5315         0 # stress period 317
         open/close .\RIV_0316.dat
      5315         0 # stress period 318
         open/close .\RIV_0317.dat
      5315         0 # stress period 319
         open/close .\RIV_0318.dat
      5315         0 # stress period 320
         open/close .\RIV_0319.dat
      5315         0 # stress period 321
         open/close .\RIV_0320.dat
      5315         0 # stress period 322
         open/close .\RIV_0321.dat
      5315         0 # stress period 323
         open/close .\RIV_0322.dat
      5315         0 # stress period 324
         open/close .\RIV_0323.dat
      5315         0 # stress period 325
         open/close .\RIV_0324.dat
      5315         0 # stress period 326
         open/close .\RIV_0325.dat
      5315         0 # stress period 327
         open/close .\RIV_0326.dat
      5315         0 # stress period 328
         open/close .\RIV_0327.dat
      5315         0 # stress period 329
         open/close .\RIV_0328.dat
      5315         0 # stress period 330
         open/close .\RIV_0329.dat
      5315         0 # stress period 331
         open/close .\RIV_0330.dat
      5315         0 # stress period 332
         open/close .\RIV_0331.dat
      5315         0 # stress period 333
         open/close .\RIV_0332.dat
      5315         0 # stress period 334
         open/close .\RIV_0333.dat
      5315         0 # stress period 335
         open/close .\RIV_0334.dat
      5315         0 # stress period 336
         open/close .\RIV_0335.dat
      5315         0 # stress period 337
         open/close .\RIV_0336.dat
      5315         0 # stress period 338
         open/close .\RIV_0337.dat
      5315         0 # stress period 339
         open/close .\RIV_0338.dat
      5315         0 # stress period 340
         open/close .\RIV_0339.dat
      5315         0 # stress period 341
         open/close .\RIV_0340.dat
      5315         0 # stress period 342
         open/close .\RIV_0341.dat
      5315         0 # stress period 343
         open/close .\RIV_0342.dat
      5315         0 # stress period 344
         open/close .\RIV_0343.dat
      5315         0 # stress period 345
         open/close .\RIV_0344.dat
      5315         0 # stress period 346
         open/close .\RIV_0345.dat
      5315         0 # stress period 347
         open/close .\RIV_0346.dat
      5315         0 # stress period 348
         open/close .\RIV_0347.dat
      5315         0 # stress period 349
         open/close .\RIV_0348.dat
      5315         0 # stress period 350
         open/close .\RIV_0349.dat
      5315         0 # stress period 351
         open/close .\RIV_0350.dat
      5315         0 # stress period 352
         open/close .\RIV_0351.dat
      5315         0 # stress period 353
         open/close .\RIV_0352.dat
      5315         0 # stress period 354
         open/close .\RIV_0353.dat
      5315         0 # stress period 355
         open/close .\RIV_0354.dat
      5315         0 # stress period 356
         open/close .\RIV_0355.dat
      5315         0 # stress period 357
         open/close .\RIV_0356.dat
      5315         0 # stress period 358
         open/close .\RIV_0357.dat
      5315         0 # stress period 359
         open/close .\RIV_0358.dat
      5315         0 # stress period 360
         open/close .\RIV_0359.dat
      5315         0 # stress period 361
         open/close .\RIV_0360.dat
      5315         0 # stress period 362
         open/close .\RIV_0361.dat
      5315         0 # stress period 363
         open/close .\RIV_0362.dat
      5315         0 # stress period 364
         open/close .\RIV_0363.dat
      5315         0 # stress period 365
         open/close .\RIV_0364.dat
      5315         0 # stress period 366
         open/close .\RIV_0365.dat
      5315         0 # stress period 367
         open/close .\RIV_0366.dat
      5315         0 # stress period 368
         open/close .\RIV_0367.dat
      5315         0 # stress period 369
         open/close .\RIV_0368.dat
      5315         0 # stress period 370
         open/close .\RIV_0369.dat
      5315         0 # stress period 371
         open/close .\RIV_0370.dat
      5315         0 # stress period 372
         open/close .\RIV_0371.dat
      5315         0 # stress period 373
         open/close .\RIV_0372.dat
      5315         0 # stress period 374
         open/close .\RIV_0373.dat
      5315         0 # stress period 375
         open/close .\RIV_0374.dat
      5315         0 # stress period 376
         open/close .\RIV_0375.dat
      5315         0 # stress period 377
         open/close .\RIV_0376.dat
      5315         0 # stress period 378
         open/close .\RIV_0377.dat
      5315         0 # stress period 379
         open/close .\RIV_0378.dat
      5315         0 # stress period 380
         open/close .\RIV_0379.dat
      5315         0 # stress period 381
         open/close .\RIV_0380.dat
      5315         0 # stress period 382
         open/close .\RIV_0381.dat
      5315         0 # stress period 383
         open/close .\RIV_0382.dat
      5315         0 # stress period 384
         open/close .\RIV_0383.dat
      5315         0 # stress period 385
         open/close .\RIV_0384.dat
      5315         0 # stress period 386
         open/close .\RIV_0385.dat
      5315         0 # stress period 387
         open/close .\RIV_0386.dat
      5315         0 # stress period 388
         open/close .\RIV_0387.dat
      5315         0 # stress period 389
         open/close .\RIV_0388.dat
      5315         0 # stress period 390
         open/close .\RIV_0389.dat
      5315         0 # stress period 391
         open/close .\RIV_0390.dat
      5315         0 # stress period 392
         open/close .\RIV_0391.dat
      5315         0 # stress period 393
         open/close .\RIV_0392.dat
      5315         0 # stress period 394
         open/close .\RIV_0393.dat
      5315         0 # stress period 395
         open/close .\RIV_0394.dat