# GHB package for MODFLOW-2005 generated by Flopy 3.3.5
       352         0  noprint
       352         0 # stress period 1
         open/close .\GHB_0000.dat
       352         0 # stress period 2
         open/close .\GHB_0001.dat
       352         0 # stress period 3
         open/close .\GHB_0002.dat
       352         0 # stress period 4
         open/close .\GHB_0003.dat
       352         0 # stress period 5
         open/close .\GHB_0004.dat
       352         0 # stress period 6
         open/close .\GHB_0005.dat
       352         0 # stress period 7
         open/close .\GHB_0006.dat
       352         0 # stress period 8
         open/close .\GHB_0007.dat
       352         0 # stress period 9
         open/close .\GHB_0008.dat
       352         0 # stress period 10
         open/close .\GHB_0009.dat
       352         0 # stress period 11
         open/close .\GHB_0010.dat
       352         0 # stress period 12
         open/close .\GHB_0011.dat
       352         0 # stress period 13
         open/close .\GHB_0012.dat
       352         0 # stress period 14
         open/close .\GHB_0013.dat
       352         0 # stress period 15
         open/close .\GHB_0014.dat
       352         0 # stress period 16
         open/close .\GHB_0015.dat
       352         0 # stress period 17
         open/close .\GHB_0016.dat
       352         0 # stress period 18
         open/close .\GHB_0017.dat
       352         0 # stress period 19
         open/close .\GHB_0018.dat
       352         0 # stress period 20
         open/close .\GHB_0019.dat
       352         0 # stress period 21
         open/close .\GHB_0020.dat
       352         0 # stress period 22
         open/close .\GHB_0021.dat
       352         0 # stress period 23
         open/close .\GHB_0022.dat
       352         0 # stress period 24
         open/close .\GHB_0023.dat
       352         0 # stress period 25
         open/close .\GHB_0024.dat
       352         0 # stress period 26
         open/close .\GHB_0025.dat
       352         0 # stress period 27
         open/close .\GHB_0026.dat
       352         0 # stress period 28
         open/close .\GHB_0027.dat
       352         0 # stress period 29
         open/close .\GHB_0028.dat
       352         0 # stress period 30
         open/close .\GHB_0029.dat
       352         0 # stress period 31
         open/close .\GHB_0030.dat
       352         0 # stress period 32
         open/close .\GHB_0031.dat
       352         0 # stress period 33
         open/close .\GHB_0032.dat
       352         0 # stress period 34
         open/close .\GHB_0033.dat
       352         0 # stress period 35
         open/close .\GHB_0034.dat
       352         0 # stress period 36
         open/close .\GHB_0035.dat
       352         0 # stress period 37
         open/close .\GHB_0036.dat
       352         0 # stress period 38
         open/close .\GHB_0037.dat
       352         0 # stress period 39
         open/close .\GHB_0038.dat
       352         0 # stress period 40
         open/close .\GHB_0039.dat
       352         0 # stress period 41
         open/close .\GHB_0040.dat
       352         0 # stress period 42
         open/close .\GHB_0041.dat
       352         0 # stress period 43
         open/close .\GHB_0042.dat
       352         0 # stress period 44
         open/close .\GHB_0043.dat
       352         0 # stress period 45
         open/close .\GHB_0044.dat
       352         0 # stress period 46
         open/close .\GHB_0045.dat
       352         0 # stress period 47
         open/close .\GHB_0046.dat
       352         0 # stress period 48
         open/close .\GHB_0047.dat
       352         0 # stress period 49
         open/close .\GHB_0048.dat
       352         0 # stress period 50
         open/close .\GHB_0049.dat
       352         0 # stress period 51
         open/close .\GHB_0050.dat
       352         0 # stress period 52
         open/close .\GHB_0051.dat
       352         0 # stress period 53
         open/close .\GHB_0052.dat
       352         0 # stress period 54
         open/close .\GHB_0053.dat
       352         0 # stress period 55
         open/close .\GHB_0054.dat
       352         0 # stress period 56
         open/close .\GHB_0055.dat
       352         0 # stress period 57
         open/close .\GHB_0056.dat
       352         0 # stress period 58
         open/close .\GHB_0057.dat
       352         0 # stress period 59
         open/close .\GHB_0058.dat
       352         0 # stress period 60
         open/close .\GHB_0059.dat
       352         0 # stress period 61
         open/close .\GHB_0060.dat
       352         0 # stress period 62
         open/close .\GHB_0061.dat
       352         0 # stress period 63
         open/close .\GHB_0062.dat
       352         0 # stress period 64
         open/close .\GHB_0063.dat
       352         0 # stress period 65
         open/close .\GHB_0064.dat
       352         0 # stress period 66
         open/close .\GHB_0065.dat
       352         0 # stress period 67
         open/close .\GHB_0066.dat
       352         0 # stress period 68
         open/close .\GHB_0067.dat
       352         0 # stress period 69
         open/close .\GHB_0068.dat
       352         0 # stress period 70
         open/close .\GHB_0069.dat
       352         0 # stress period 71
         open/close .\GHB_0070.dat
       352         0 # stress period 72
         open/close .\GHB_0071.dat
       352         0 # stress period 73
         open/close .\GHB_0072.dat
       352         0 # stress period 74
         open/close .\GHB_0073.dat
       352         0 # stress period 75
         open/close .\GHB_0074.dat
       352         0 # stress period 76
         open/close .\GHB_0075.dat
       352         0 # stress period 77
         open/close .\GHB_0076.dat
       352         0 # stress period 78
         open/close .\GHB_0077.dat
       352         0 # stress period 79
         open/close .\GHB_0078.dat
       352         0 # stress period 80
         open/close .\GHB_0079.dat
       352         0 # stress period 81
         open/close .\GHB_0080.dat
       352         0 # stress period 82
         open/close .\GHB_0081.dat
       352         0 # stress period 83
         open/close .\GHB_0082.dat
       352         0 # stress period 84
         open/close .\GHB_0083.dat
       352         0 # stress period 85
         open/close .\GHB_0084.dat
       352         0 # stress period 86
         open/close .\GHB_0085.dat
       352         0 # stress period 87
         open/close .\GHB_0086.dat
       352         0 # stress period 88
         open/close .\GHB_0087.dat
       352         0 # stress period 89
         open/close .\GHB_0088.dat
       352         0 # stress period 90
         open/close .\GHB_0089.dat
       352         0 # stress period 91
         open/close .\GHB_0090.dat
       352         0 # stress period 92
         open/close .\GHB_0091.dat
       352         0 # stress period 93
         open/close .\GHB_0092.dat
       352         0 # stress period 94
         open/close .\GHB_0093.dat
       352         0 # stress period 95
         open/close .\GHB_0094.dat
       352         0 # stress period 96
         open/close .\GHB_0095.dat
       352         0 # stress period 97
         open/close .\GHB_0096.dat
       352         0 # stress period 98
         open/close .\GHB_0097.dat
       352         0 # stress period 99
         open/close .\GHB_0098.dat
       352         0 # stress period 100
         open/close .\GHB_0099.dat
       352         0 # stress period 101
         open/close .\GHB_0100.dat
       352         0 # stress period 102
         open/close .\GHB_0101.dat
       352         0 # stress period 103
         open/close .\GHB_0102.dat
       352         0 # stress period 104
         open/close .\GHB_0103.dat
       352         0 # stress period 105
         open/close .\GHB_0104.dat
       352         0 # stress period 106
         open/close .\GHB_0105.dat
       352         0 # stress period 107
         open/close .\GHB_0106.dat
       352         0 # stress period 108
         open/close .\GHB_0107.dat
       352         0 # stress period 109
         open/close .\GHB_0108.dat
       352         0 # stress period 110
         open/close .\GHB_0109.dat
       352         0 # stress period 111
         open/close .\GHB_0110.dat
       352         0 # stress period 112
         open/close .\GHB_0111.dat
       352         0 # stress period 113
         open/close .\GHB_0112.dat
       352         0 # stress period 114
         open/close .\GHB_0113.dat
       352         0 # stress period 115
         open/close .\GHB_0114.dat
       352         0 # stress period 116
         open/close .\GHB_0115.dat
       352         0 # stress period 117
         open/close .\GHB_0116.dat
       352         0 # stress period 118
         open/close .\GHB_0117.dat
       352         0 # stress period 119
         open/close .\GHB_0118.dat
       352         0 # stress period 120
         open/close .\GHB_0119.dat
       352         0 # stress period 121
         open/close .\GHB_0120.dat
       352         0 # stress period 122
         open/close .\GHB_0121.dat
       352         0 # stress period 123
         open/close .\GHB_0122.dat
       352         0 # stress period 124
         open/close .\GHB_0123.dat
       352         0 # stress period 125
         open/close .\GHB_0124.dat
       352         0 # stress period 126
         open/close .\GHB_0125.dat
       352         0 # stress period 127
         open/close .\GHB_0126.dat
       352         0 # stress period 128
         open/close .\GHB_0127.dat
       352         0 # stress period 129
         open/close .\GHB_0128.dat
       352         0 # stress period 130
         open/close .\GHB_0129.dat
       352         0 # stress period 131
         open/close .\GHB_0130.dat
       352         0 # stress period 132
         open/close .\GHB_0131.dat
       352         0 # stress period 133
         open/close .\GHB_0132.dat
       352         0 # stress period 134
         open/close .\GHB_0133.dat
       352         0 # stress period 135
         open/close .\GHB_0134.dat
       352         0 # stress period 136
         open/close .\GHB_0135.dat
       352         0 # stress period 137
         open/close .\GHB_0136.dat
       352         0 # stress period 138
         open/close .\GHB_0137.dat
       352         0 # stress period 139
         open/close .\GHB_0138.dat
       352         0 # stress period 140
         open/close .\GHB_0139.dat
       352         0 # stress period 141
         open/close .\GHB_0140.dat
       352         0 # stress period 142
         open/close .\GHB_0141.dat
       352         0 # stress period 143
         open/close .\GHB_0142.dat
       352         0 # stress period 144
         open/close .\GHB_0143.dat
       352         0 # stress period 145
         open/close .\GHB_0144.dat
       352         0 # stress period 146
         open/close .\GHB_0145.dat
       352         0 # stress period 147
         open/close .\GHB_0146.dat
       352         0 # stress period 148
         open/close .\GHB_0147.dat
       352         0 # stress period 149
         open/close .\GHB_0148.dat
       352         0 # stress period 150
         open/close .\GHB_0149.dat
       352         0 # stress period 151
         open/close .\GHB_0150.dat
       352         0 # stress period 152
         open/close .\GHB_0151.dat
       352         0 # stress period 153
         open/close .\GHB_0152.dat
       352         0 # stress period 154
         open/close .\GHB_0153.dat
       352         0 # stress period 155
         open/close .\GHB_0154.dat
       352         0 # stress period 156
         open/close .\GHB_0155.dat
       352         0 # stress period 157
         open/close .\GHB_0156.dat
       352         0 # stress period 158
         open/close .\GHB_0157.dat
       352         0 # stress period 159
         open/close .\GHB_0158.dat
       352         0 # stress period 160
         open/close .\GHB_0159.dat
       352         0 # stress period 161
         open/close .\GHB_0160.dat
       352         0 # stress period 162
         open/close .\GHB_0161.dat
       352         0 # stress period 163
         open/close .\GHB_0162.dat
       352         0 # stress period 164
         open/close .\GHB_0163.dat
       352         0 # stress period 165
         open/close .\GHB_0164.dat
       352         0 # stress period 166
         open/close .\GHB_0165.dat
       352         0 # stress period 167
         open/close .\GHB_0166.dat
       352         0 # stress period 168
         open/close .\GHB_0167.dat
       352         0 # stress period 169
         open/close .\GHB_0168.dat
       352         0 # stress period 170
         open/close .\GHB_0169.dat
       352         0 # stress period 171
         open/close .\GHB_0170.dat
       352         0 # stress period 172
         open/close .\GHB_0171.dat
       352         0 # stress period 173
         open/close .\GHB_0172.dat
       352         0 # stress period 174
         open/close .\GHB_0173.dat
       352         0 # stress period 175
         open/close .\GHB_0174.dat
       352         0 # stress period 176
         open/close .\GHB_0175.dat
       352         0 # stress period 177
         open/close .\GHB_0176.dat
       352         0 # stress period 178
         open/close .\GHB_0177.dat
       352         0 # stress period 179
         open/close .\GHB_0178.dat
       352         0 # stress period 180
         open/close .\GHB_0179.dat
       352         0 # stress period 181
         open/close .\GHB_0180.dat
       352         0 # stress period 182
         open/close .\GHB_0181.dat
       352         0 # stress period 183
         open/close .\GHB_0182.dat
       352         0 # stress period 184
         open/close .\GHB_0183.dat
       352         0 # stress period 185
         open/close .\GHB_0184.dat
       352         0 # stress period 186
         open/close .\GHB_0185.dat
       352         0 # stress period 187
         open/close .\GHB_0186.dat
       352         0 # stress period 188
         open/close .\GHB_0187.dat
       352         0 # stress period 189
         open/close .\GHB_0188.dat
       352         0 # stress period 190
         open/close .\GHB_0189.dat
       352         0 # stress period 191
         open/close .\GHB_0190.dat
       352         0 # stress period 192
         open/close .\GHB_0191.dat
       352         0 # stress period 193
         open/close .\GHB_0192.dat
       352         0 # stress period 194
         open/close .\GHB_0193.dat
       352         0 # stress period 195
         open/close .\GHB_0194.dat
       352         0 # stress period 196
         open/close .\GHB_0195.dat
       352         0 # stress period 197
         open/close .\GHB_0196.dat
       352         0 # stress period 198
         open/close .\GHB_0197.dat
       352         0 # stress period 199
         open/close .\GHB_0198.dat
       352         0 # stress period 200
         open/close .\GHB_0199.dat
       352         0 # stress period 201
         open/close .\GHB_0200.dat
       352         0 # stress period 202
         open/close .\GHB_0201.dat
       352         0 # stress period 203
         open/close .\GHB_0202.dat
       352         0 # stress period 204
         open/close .\GHB_0203.dat
       352         0 # stress period 205
         open/close .\GHB_0204.dat
       352         0 # stress period 206
         open/close .\GHB_0205.dat
       352         0 # stress period 207
         open/close .\GHB_0206.dat
       352         0 # stress period 208
         open/close .\GHB_0207.dat
       352         0 # stress period 209
         open/close .\GHB_0208.dat
       352         0 # stress period 210
         open/close .\GHB_0209.dat
       352         0 # stress period 211
         open/close .\GHB_0210.dat
       352         0 # stress period 212
         open/close .\GHB_0211.dat
       352         0 # stress period 213
         open/close .\GHB_0212.dat
       352         0 # stress period 214
         open/close .\GHB_0213.dat
       352         0 # stress period 215
         open/close .\GHB_0214.dat
       352         0 # stress period 216
         open/close .\GHB_0215.dat
       352         0 # stress period 217
         open/close .\GHB_0216.dat
       352         0 # stress period 218
         open/close .\GHB_0217.dat
       352         0 # stress period 219
         open/close .\GHB_0218.dat
       352         0 # stress period 220
         open/close .\GHB_0219.dat
       352         0 # stress period 221
         open/close .\GHB_0220.dat
       352         0 # stress period 222
         open/close .\GHB_0221.dat
       352         0 # stress period 223
         open/close .\GHB_0222.dat
       352         0 # stress period 224
         open/close .\GHB_0223.dat
       352         0 # stress period 225
         open/close .\GHB_0224.dat
       352         0 # stress period 226
         open/close .\GHB_0225.dat
       352         0 # stress period 227
         open/close .\GHB_0226.dat
       352         0 # stress period 228
         open/close .\GHB_0227.dat
       352         0 # stress period 229
         open/close .\GHB_0228.dat
       352         0 # stress period 230
         open/close .\GHB_0229.dat
       352         0 # stress period 231
         open/close .\GHB_0230.dat
       352         0 # stress period 232
         open/close .\GHB_0231.dat
       352         0 # stress period 233
         open/close .\GHB_0232.dat
       352         0 # stress period 234
         open/close .\GHB_0233.dat
       352         0 # stress period 235
         open/close .\GHB_0234.dat
       352         0 # stress period 236
         open/close .\GHB_0235.dat
       352         0 # stress period 237
         open/close .\GHB_0236.dat
       352         0 # stress period 238
         open/close .\GHB_0237.dat
       352         0 # stress period 239
         open/close .\GHB_0238.dat
       352         0 # stress period 240
         open/close .\GHB_0239.dat
       352         0 # stress period 241
         open/close .\GHB_0240.dat
       352         0 # stress period 242
         open/close .\GHB_0241.dat
       352         0 # stress period 243
         open/close .\GHB_0242.dat
       352         0 # stress period 244
         open/close .\GHB_0243.dat
       352         0 # stress period 245
         open/close .\GHB_0244.dat
       352         0 # stress period 246
         open/close .\GHB_0245.dat
       352         0 # stress period 247
         open/close .\GHB_0246.dat
       352         0 # stress period 248
         open/close .\GHB_0247.dat
       352         0 # stress period 249
         open/close .\GHB_0248.dat
       352         0 # stress period 250
         open/close .\GHB_0249.dat
       352         0 # stress period 251
         open/close .\GHB_0250.dat
       352         0 # stress period 252
         open/close .\GHB_0251.dat
       352         0 # stress period 253
         open/close .\GHB_0252.dat
       352         0 # stress period 254
         open/close .\GHB_0253.dat
       352         0 # stress period 255
         open/close .\GHB_0254.dat
       352         0 # stress period 256
         open/close .\GHB_0255.dat
       352         0 # stress period 257
         open/close .\GHB_0256.dat
       352         0 # stress period 258
         open/close .\GHB_0257.dat
       352         0 # stress period 259
         open/close .\GHB_0258.dat
       352         0 # stress period 260
         open/close .\GHB_0259.dat
       352         0 # stress period 261
         open/close .\GHB_0260.dat
       352         0 # stress period 262
         open/close .\GHB_0261.dat
       352         0 # stress period 263
         open/close .\GHB_0262.dat
       352         0 # stress period 264
         open/close .\GHB_0263.dat
       352         0 # stress period 265
         open/close .\GHB_0264.dat
       352         0 # stress period 266
         open/close .\GHB_0265.dat
       352         0 # stress period 267
         open/close .\GHB_0266.dat
       352         0 # stress period 268
         open/close .\GHB_0267.dat
       352         0 # stress period 269
         open/close .\GHB_0268.dat
       352         0 # stress period 270
         open/close .\GHB_0269.dat
       352         0 # stress period 271
         open/close .\GHB_0270.dat
       352         0 # stress period 272
         open/close .\GHB_0271.dat
       352         0 # stress period 273
         open/close .\GHB_0272.dat
       352         0 # stress period 274
         open/close .\GHB_0273.dat
       352         0 # stress period 275
         open/close .\GHB_0274.dat
       352         0 # stress period 276
         open/close .\GHB_0275.dat
       352         0 # stress period 277
         open/close .\GHB_0276.dat
       352         0 # stress period 278
         open/close .\GHB_0277.dat
       352         0 # stress period 279
         open/close .\GHB_0278.dat
       352         0 # stress period 280
         open/close .\GHB_0279.dat
       352         0 # stress period 281
         open/close .\GHB_0280.dat
       352         0 # stress period 282
         open/close .\GHB_0281.dat
       352         0 # stress period 283
         open/close .\GHB_0282.dat
       352         0 # stress period 284
         open/close .\GHB_0283.dat
       352         0 # stress period 285
         open/close .\GHB_0284.dat
       352         0 # stress period 286
         open/close .\GHB_0285.dat
       352         0 # stress period 287
         open/close .\GHB_0286.dat
       352         0 # stress period 288
         open/close .\GHB_0287.dat
       352         0 # stress period 289
         open/close .\GHB_0288.dat
       352         0 # stress period 290
         open/close .\GHB_0289.dat
       352         0 # stress period 291
         open/close .\GHB_0290.dat
       352         0 # stress period 292
         open/close .\GHB_0291.dat
       352         0 # stress period 293
         open/close .\GHB_0292.dat
       352         0 # stress period 294
         open/close .\GHB_0293.dat
       352         0 # stress period 295
         open/close .\GHB_0294.dat
       352         0 # stress period 296
         open/close .\GHB_0295.dat
       352         0 # stress period 297
         open/close .\GHB_0296.dat
       352         0 # stress period 298
         open/close .\GHB_0297.dat
       352         0 # stress period 299
         open/close .\GHB_0298.dat
       352         0 # stress period 300
         open/close .\GHB_0299.dat
       352         0 # stress period 301
         open/close .\GHB_0300.dat
       352         0 # stress period 302
         open/close .\GHB_0301.dat
       352         0 # stress period 303
         open/close .\GHB_0302.dat
       352         0 # stress period 304
         open/close .\GHB_0303.dat
       352         0 # stress period 305
         open/close .\GHB_0304.dat
       352         0 # stress period 306
         open/close .\GHB_0305.dat
       352         0 # stress period 307
         open/close .\GHB_0306.dat
       352         0 # stress period 308
         open/close .\GHB_0307.dat
       352         0 # stress period 309
         open/close .\GHB_0308.dat
       352         0 # stress period 310
         open/close .\GHB_0309.dat
       352         0 # stress period 311
         open/close .\GHB_0310.dat
       352         0 # stress period 312
         open/close .\GHB_0311.dat
       352         0 # stress period 313
         open/close .\GHB_0312.dat
       352         0 # stress period 314
         open/close .\GHB_0313.dat
       352         0 # stress period 315
         open/close .\GHB_0314.dat
       352         0 # stress period 316
         open/close .\GHB_0315.dat
       352         0 # stress period 317
         open/close .\GHB_0316.dat
       352         0 # stress period 318
         open/close .\GHB_0317.dat
       352         0 # stress period 319
         open/close .\GHB_0318.dat
       352         0 # stress period 320
         open/close .\GHB_0319.dat
       352         0 # stress period 321
         open/close .\GHB_0320.dat
       352         0 # stress period 322
         open/close .\GHB_0321.dat
       352         0 # stress period 323
         open/close .\GHB_0322.dat
       352         0 # stress period 324
         open/close .\GHB_0323.dat
       352         0 # stress period 325
         open/close .\GHB_0324.dat
       352         0 # stress period 326
         open/close .\GHB_0325.dat
       352         0 # stress period 327
         open/close .\GHB_0326.dat
       352         0 # stress period 328
         open/close .\GHB_0327.dat
       352         0 # stress period 329
         open/close .\GHB_0328.dat
       352         0 # stress period 330
         open/close .\GHB_0329.dat
       352         0 # stress period 331
         open/close .\GHB_0330.dat
       352         0 # stress period 332
         open/close .\GHB_0331.dat
       352         0 # stress period 333
         open/close .\GHB_0332.dat
       352         0 # stress period 334
         open/close .\GHB_0333.dat
       352         0 # stress period 335
         open/close .\GHB_0334.dat
       352         0 # stress period 336
         open/close .\GHB_0335.dat
       352         0 # stress period 337
         open/close .\GHB_0336.dat
       352         0 # stress period 338
         open/close .\GHB_0337.dat
       352         0 # stress period 339
         open/close .\GHB_0338.dat
       352         0 # stress period 340
         open/close .\GHB_0339.dat
       352         0 # stress period 341
         open/close .\GHB_0340.dat
       352         0 # stress period 342
         open/close .\GHB_0341.dat
       352         0 # stress period 343
         open/close .\GHB_0342.dat
       352         0 # stress period 344
         open/close .\GHB_0343.dat
       352         0 # stress period 345
         open/close .\GHB_0344.dat
       352         0 # stress period 346
         open/close .\GHB_0345.dat
       352         0 # stress period 347
         open/close .\GHB_0346.dat
       352         0 # stress period 348
         open/close .\GHB_0347.dat
       352         0 # stress period 349
         open/close .\GHB_0348.dat
       352         0 # stress period 350
         open/close .\GHB_0349.dat
       352         0 # stress period 351
         open/close .\GHB_0350.dat
       352         0 # stress period 352
         open/close .\GHB_0351.dat
       352         0 # stress period 353
         open/close .\GHB_0352.dat
       352         0 # stress period 354
         open/close .\GHB_0353.dat
       352         0 # stress period 355
         open/close .\GHB_0354.dat
       352         0 # stress period 356
         open/close .\GHB_0355.dat
       352         0 # stress period 357
         open/close .\GHB_0356.dat
       352         0 # stress period 358
         open/close .\GHB_0357.dat
       352         0 # stress period 359
         open/close .\GHB_0358.dat
       352         0 # stress period 360
         open/close .\GHB_0359.dat
       352         0 # stress period 361
         open/close .\GHB_0360.dat
       352         0 # stress period 362
         open/close .\GHB_0361.dat
       352         0 # stress period 363
         open/close .\GHB_0362.dat
       352         0 # stress period 364
         open/close .\GHB_0363.dat
       352         0 # stress period 365
         open/close .\GHB_0364.dat
       352         0 # stress period 366
         open/close .\GHB_0365.dat
       352         0 # stress period 367
         open/close .\GHB_0366.dat
       352         0 # stress period 368
         open/close .\GHB_0367.dat
       352         0 # stress period 369
         open/close .\GHB_0368.dat
       352         0 # stress period 370
         open/close .\GHB_0369.dat
       352         0 # stress period 371
         open/close .\GHB_0370.dat
       352         0 # stress period 372
         open/close .\GHB_0371.dat
       352         0 # stress period 373
         open/close .\GHB_0372.dat
       352         0 # stress period 374
         open/close .\GHB_0373.dat
       352         0 # stress period 375
         open/close .\GHB_0374.dat
       352         0 # stress period 376
         open/close .\GHB_0375.dat
       352         0 # stress period 377
         open/close .\GHB_0376.dat
       352         0 # stress period 378
         open/close .\GHB_0377.dat
       352         0 # stress period 379
         open/close .\GHB_0378.dat
       352         0 # stress period 380
         open/close .\GHB_0379.dat
       352         0 # stress period 381
         open/close .\GHB_0380.dat
       352         0 # stress period 382
         open/close .\GHB_0381.dat
       352         0 # stress period 383
         open/close .\GHB_0382.dat
       352         0 # stress period 384
         open/close .\GHB_0383.dat
       352         0 # stress period 385
         open/close .\GHB_0384.dat
       352         0 # stress period 386
         open/close .\GHB_0385.dat
       352         0 # stress period 387
         open/close .\GHB_0386.dat
       352         0 # stress period 388
         open/close .\GHB_0387.dat
       352         0 # stress period 389
         open/close .\GHB_0388.dat
       352         0 # stress period 390
         open/close .\GHB_0389.dat
       352         0 # stress period 391
         open/close .\GHB_0390.dat
       352         0 # stress period 392
         open/close .\GHB_0391.dat
       352         0 # stress period 393
         open/close .\GHB_0392.dat
       352         0 # stress period 394
         open/close .\GHB_0393.dat
       352         0 # stress period 395
         open/close .\GHB_0394.dat