# DRN package for MODFLOW-2005 generated by Flopy 3.3.5
     21974        50 noprint
     21974         0 # stress period 1
         open/close .\DRN_0000.dat
     21974         0 # stress period 2
         open/close .\DRN_0001.dat
     21974         0 # stress period 3
         open/close .\DRN_0002.dat
     21974         0 # stress period 4
         open/close .\DRN_0003.dat
     21974         0 # stress period 5
         open/close .\DRN_0004.dat
     21974         0 # stress period 6
         open/close .\DRN_0005.dat
     21974         0 # stress period 7
         open/close .\DRN_0006.dat
     21974         0 # stress period 8
         open/close .\DRN_0007.dat
     21974         0 # stress period 9
         open/close .\DRN_0008.dat
     21974         0 # stress period 10
         open/close .\DRN_0009.dat
     21974         0 # stress period 11
         open/close .\DRN_0010.dat
     21974         0 # stress period 12
         open/close .\DRN_0011.dat
     21974         0 # stress period 13
         open/close .\DRN_0012.dat
     21974         0 # stress period 14
         open/close .\DRN_0013.dat
     21974         0 # stress period 15
         open/close .\DRN_0014.dat
     21974         0 # stress period 16
         open/close .\DRN_0015.dat
     21974         0 # stress period 17
         open/close .\DRN_0016.dat
     21974         0 # stress period 18
         open/close .\DRN_0017.dat
     21974         0 # stress period 19
         open/close .\DRN_0018.dat
     21974         0 # stress period 20
         open/close .\DRN_0019.dat
     21974         0 # stress period 21
         open/close .\DRN_0020.dat
     21974         0 # stress period 22
         open/close .\DRN_0021.dat
     21974         0 # stress period 23
         open/close .\DRN_0022.dat
     21974         0 # stress period 24
         open/close .\DRN_0023.dat
     21974         0 # stress period 25
         open/close .\DRN_0024.dat
     21974         0 # stress period 26
         open/close .\DRN_0025.dat
     21974         0 # stress period 27
         open/close .\DRN_0026.dat
     21974         0 # stress period 28
         open/close .\DRN_0027.dat
     21974         0 # stress period 29
         open/close .\DRN_0028.dat
     21974         0 # stress period 30
         open/close .\DRN_0029.dat
     21974         0 # stress period 31
         open/close .\DRN_0030.dat
     21974         0 # stress period 32
         open/close .\DRN_0031.dat
     21974         0 # stress period 33
         open/close .\DRN_0032.dat
     21974         0 # stress period 34
         open/close .\DRN_0033.dat
     21974         0 # stress period 35
         open/close .\DRN_0034.dat
     21974         0 # stress period 36
         open/close .\DRN_0035.dat
     21974         0 # stress period 37
         open/close .\DRN_0036.dat
     21974         0 # stress period 38
         open/close .\DRN_0037.dat
     21974         0 # stress period 39
         open/close .\DRN_0038.dat
     21974         0 # stress period 40
         open/close .\DRN_0039.dat
     21974         0 # stress period 41
         open/close .\DRN_0040.dat
     21974         0 # stress period 42
         open/close .\DRN_0041.dat
     21974         0 # stress period 43
         open/close .\DRN_0042.dat
     21974         0 # stress period 44
         open/close .\DRN_0043.dat
     21974         0 # stress period 45
         open/close .\DRN_0044.dat
     21974         0 # stress period 46
         open/close .\DRN_0045.dat
     21974         0 # stress period 47
         open/close .\DRN_0046.dat
     21974         0 # stress period 48
         open/close .\DRN_0047.dat
     21974         0 # stress period 49
         open/close .\DRN_0048.dat
     21974         0 # stress period 50
         open/close .\DRN_0049.dat
     21974         0 # stress period 51
         open/close .\DRN_0050.dat
     21974         0 # stress period 52
         open/close .\DRN_0051.dat
     21974         0 # stress period 53
         open/close .\DRN_0052.dat
     21974         0 # stress period 54
         open/close .\DRN_0053.dat
     21974         0 # stress period 55
         open/close .\DRN_0054.dat
     21974         0 # stress period 56
         open/close .\DRN_0055.dat
     21974         0 # stress period 57
         open/close .\DRN_0056.dat
     21974         0 # stress period 58
         open/close .\DRN_0057.dat
     21974         0 # stress period 59
         open/close .\DRN_0058.dat
     21974         0 # stress period 60
         open/close .\DRN_0059.dat
     21974         0 # stress period 61
         open/close .\DRN_0060.dat
     21974         0 # stress period 62
         open/close .\DRN_0061.dat
     21974         0 # stress period 63
         open/close .\DRN_0062.dat
     21974         0 # stress period 64
         open/close .\DRN_0063.dat
     21974         0 # stress period 65
         open/close .\DRN_0064.dat
     21974         0 # stress period 66
         open/close .\DRN_0065.dat
     21974         0 # stress period 67
         open/close .\DRN_0066.dat
     21974         0 # stress period 68
         open/close .\DRN_0067.dat
     21974         0 # stress period 69
         open/close .\DRN_0068.dat
     21974         0 # stress period 70
         open/close .\DRN_0069.dat
     21974         0 # stress period 71
         open/close .\DRN_0070.dat
     21974         0 # stress period 72
         open/close .\DRN_0071.dat
     21974         0 # stress period 73
         open/close .\DRN_0072.dat
     21974         0 # stress period 74
         open/close .\DRN_0073.dat
     21974         0 # stress period 75
         open/close .\DRN_0074.dat
     21974         0 # stress period 76
         open/close .\DRN_0075.dat
     21974         0 # stress period 77
         open/close .\DRN_0076.dat
     21974         0 # stress period 78
         open/close .\DRN_0077.dat
     21974         0 # stress period 79
         open/close .\DRN_0078.dat
     21974         0 # stress period 80
         open/close .\DRN_0079.dat
     21974         0 # stress period 81
         open/close .\DRN_0080.dat
     21974         0 # stress period 82
         open/close .\DRN_0081.dat
     21974         0 # stress period 83
         open/close .\DRN_0082.dat
     21974         0 # stress period 84
         open/close .\DRN_0083.dat
     21974         0 # stress period 85
         open/close .\DRN_0084.dat
     21974         0 # stress period 86
         open/close .\DRN_0085.dat
     21974         0 # stress period 87
         open/close .\DRN_0086.dat
     21974         0 # stress period 88
         open/close .\DRN_0087.dat
     21974         0 # stress period 89
         open/close .\DRN_0088.dat
     21974         0 # stress period 90
         open/close .\DRN_0089.dat
     21974         0 # stress period 91
         open/close .\DRN_0090.dat
     21974         0 # stress period 92
         open/close .\DRN_0091.dat
     21974         0 # stress period 93
         open/close .\DRN_0092.dat
     21974         0 # stress period 94
         open/close .\DRN_0093.dat
     21974         0 # stress period 95
         open/close .\DRN_0094.dat
     21974         0 # stress period 96
         open/close .\DRN_0095.dat
     21974         0 # stress period 97
         open/close .\DRN_0096.dat
     21974         0 # stress period 98
         open/close .\DRN_0097.dat
     21974         0 # stress period 99
         open/close .\DRN_0098.dat
     21974         0 # stress period 100
         open/close .\DRN_0099.dat
     21974         0 # stress period 101
         open/close .\DRN_0100.dat
     21974         0 # stress period 102
         open/close .\DRN_0101.dat
     21974         0 # stress period 103
         open/close .\DRN_0102.dat
     21974         0 # stress period 104
         open/close .\DRN_0103.dat
     21974         0 # stress period 105
         open/close .\DRN_0104.dat
     21974         0 # stress period 106
         open/close .\DRN_0105.dat
     21974         0 # stress period 107
         open/close .\DRN_0106.dat
     21974         0 # stress period 108
         open/close .\DRN_0107.dat
     21974         0 # stress period 109
         open/close .\DRN_0108.dat
     21974         0 # stress period 110
         open/close .\DRN_0109.dat
     21974         0 # stress period 111
         open/close .\DRN_0110.dat
     21974         0 # stress period 112
         open/close .\DRN_0111.dat
     21974         0 # stress period 113
         open/close .\DRN_0112.dat
     21974         0 # stress period 114
         open/close .\DRN_0113.dat
     21974         0 # stress period 115
         open/close .\DRN_0114.dat
     21974         0 # stress period 116
         open/close .\DRN_0115.dat
     21974         0 # stress period 117
         open/close .\DRN_0116.dat
     21974         0 # stress period 118
         open/close .\DRN_0117.dat
     21974         0 # stress period 119
         open/close .\DRN_0118.dat
     21974         0 # stress period 120
         open/close .\DRN_0119.dat
     21974         0 # stress period 121
         open/close .\DRN_0120.dat
     21974         0 # stress period 122
         open/close .\DRN_0121.dat
     21974         0 # stress period 123
         open/close .\DRN_0122.dat
     21974         0 # stress period 124
         open/close .\DRN_0123.dat
     21974         0 # stress period 125
         open/close .\DRN_0124.dat
     21974         0 # stress period 126
         open/close .\DRN_0125.dat
     21974         0 # stress period 127
         open/close .\DRN_0126.dat
     21974         0 # stress period 128
         open/close .\DRN_0127.dat
     21974         0 # stress period 129
         open/close .\DRN_0128.dat
     21974         0 # stress period 130
         open/close .\DRN_0129.dat
     21974         0 # stress period 131
         open/close .\DRN_0130.dat
     21974         0 # stress period 132
         open/close .\DRN_0131.dat
     21974         0 # stress period 133
         open/close .\DRN_0132.dat
     21974         0 # stress period 134
         open/close .\DRN_0133.dat
     21974         0 # stress period 135
         open/close .\DRN_0134.dat
     21974         0 # stress period 136
         open/close .\DRN_0135.dat
     21974         0 # stress period 137
         open/close .\DRN_0136.dat
     21974         0 # stress period 138
         open/close .\DRN_0137.dat
     21974         0 # stress period 139
         open/close .\DRN_0138.dat
     21974         0 # stress period 140
         open/close .\DRN_0139.dat
     21974         0 # stress period 141
         open/close .\DRN_0140.dat
     21974         0 # stress period 142
         open/close .\DRN_0141.dat
     21974         0 # stress period 143
         open/close .\DRN_0142.dat
     21974         0 # stress period 144
         open/close .\DRN_0143.dat
     21974         0 # stress period 145
         open/close .\DRN_0144.dat
     21974         0 # stress period 146
         open/close .\DRN_0145.dat
     21974         0 # stress period 147
         open/close .\DRN_0146.dat
     21974         0 # stress period 148
         open/close .\DRN_0147.dat
     21974         0 # stress period 149
         open/close .\DRN_0148.dat
     21974         0 # stress period 150
         open/close .\DRN_0149.dat
     21974         0 # stress period 151
         open/close .\DRN_0150.dat
     21974         0 # stress period 152
         open/close .\DRN_0151.dat
     21974         0 # stress period 153
         open/close .\DRN_0152.dat
     21974         0 # stress period 154
         open/close .\DRN_0153.dat
     21974         0 # stress period 155
         open/close .\DRN_0154.dat
     21974         0 # stress period 156
         open/close .\DRN_0155.dat
     21974         0 # stress period 157
         open/close .\DRN_0156.dat
     21974         0 # stress period 158
         open/close .\DRN_0157.dat
     21974         0 # stress period 159
         open/close .\DRN_0158.dat
     21974         0 # stress period 160
         open/close .\DRN_0159.dat
     21974         0 # stress period 161
         open/close .\DRN_0160.dat
     21974         0 # stress period 162
         open/close .\DRN_0161.dat
     21974         0 # stress period 163
         open/close .\DRN_0162.dat
     21974         0 # stress period 164
         open/close .\DRN_0163.dat
     21974         0 # stress period 165
         open/close .\DRN_0164.dat
     21974         0 # stress period 166
         open/close .\DRN_0165.dat
     21974         0 # stress period 167
         open/close .\DRN_0166.dat
     21974         0 # stress period 168
         open/close .\DRN_0167.dat
     21974         0 # stress period 169
         open/close .\DRN_0168.dat
     21974         0 # stress period 170
         open/close .\DRN_0169.dat
     21974         0 # stress period 171
         open/close .\DRN_0170.dat
     21974         0 # stress period 172
         open/close .\DRN_0171.dat
     21974         0 # stress period 173
         open/close .\DRN_0172.dat
     21974         0 # stress period 174
         open/close .\DRN_0173.dat
     21974         0 # stress period 175
         open/close .\DRN_0174.dat
     21974         0 # stress period 176
         open/close .\DRN_0175.dat
     21974         0 # stress period 177
         open/close .\DRN_0176.dat
     21974         0 # stress period 178
         open/close .\DRN_0177.dat
     21974         0 # stress period 179
         open/close .\DRN_0178.dat
     21974         0 # stress period 180
         open/close .\DRN_0179.dat
     21974         0 # stress period 181
         open/close .\DRN_0180.dat
     21974         0 # stress period 182
         open/close .\DRN_0181.dat
     21974         0 # stress period 183
         open/close .\DRN_0182.dat
     21974         0 # stress period 184
         open/close .\DRN_0183.dat
     21974         0 # stress period 185
         open/close .\DRN_0184.dat
     21974         0 # stress period 186
         open/close .\DRN_0185.dat
     21974         0 # stress period 187
         open/close .\DRN_0186.dat
     21974         0 # stress period 188
         open/close .\DRN_0187.dat
     21974         0 # stress period 189
         open/close .\DRN_0188.dat
     21974         0 # stress period 190
         open/close .\DRN_0189.dat
     21974         0 # stress period 191
         open/close .\DRN_0190.dat
     21974         0 # stress period 192
         open/close .\DRN_0191.dat
     21974         0 # stress period 193
         open/close .\DRN_0192.dat
     21974         0 # stress period 194
         open/close .\DRN_0193.dat
     21974         0 # stress period 195
         open/close .\DRN_0194.dat
     21974         0 # stress period 196
         open/close .\DRN_0195.dat
     21974         0 # stress period 197
         open/close .\DRN_0196.dat
     21974         0 # stress period 198
         open/close .\DRN_0197.dat
     21974         0 # stress period 199
         open/close .\DRN_0198.dat
     21974         0 # stress period 200
         open/close .\DRN_0199.dat
     21974         0 # stress period 201
         open/close .\DRN_0200.dat
     21974         0 # stress period 202
         open/close .\DRN_0201.dat
     21974         0 # stress period 203
         open/close .\DRN_0202.dat
     21974         0 # stress period 204
         open/close .\DRN_0203.dat
     21974         0 # stress period 205
         open/close .\DRN_0204.dat
     21974         0 # stress period 206
         open/close .\DRN_0205.dat
     21974         0 # stress period 207
         open/close .\DRN_0206.dat
     21974         0 # stress period 208
         open/close .\DRN_0207.dat
     21974         0 # stress period 209
         open/close .\DRN_0208.dat
     21974         0 # stress period 210
         open/close .\DRN_0209.dat
     21974         0 # stress period 211
         open/close .\DRN_0210.dat
     21974         0 # stress period 212
         open/close .\DRN_0211.dat
     21974         0 # stress period 213
         open/close .\DRN_0212.dat
     21974         0 # stress period 214
         open/close .\DRN_0213.dat
     21974         0 # stress period 215
         open/close .\DRN_0214.dat
     21974         0 # stress period 216
         open/close .\DRN_0215.dat
     21974         0 # stress period 217
         open/close .\DRN_0216.dat
     21974         0 # stress period 218
         open/close .\DRN_0217.dat
     21974         0 # stress period 219
         open/close .\DRN_0218.dat
     21974         0 # stress period 220
         open/close .\DRN_0219.dat
     21974         0 # stress period 221
         open/close .\DRN_0220.dat
     21974         0 # stress period 222
         open/close .\DRN_0221.dat
     21974         0 # stress period 223
         open/close .\DRN_0222.dat
     21974         0 # stress period 224
         open/close .\DRN_0223.dat
     21974         0 # stress period 225
         open/close .\DRN_0224.dat
     21974         0 # stress period 226
         open/close .\DRN_0225.dat
     21974         0 # stress period 227
         open/close .\DRN_0226.dat
     21974         0 # stress period 228
         open/close .\DRN_0227.dat
     21974         0 # stress period 229
         open/close .\DRN_0228.dat
     21974         0 # stress period 230
         open/close .\DRN_0229.dat
     21974         0 # stress period 231
         open/close .\DRN_0230.dat
     21974         0 # stress period 232
         open/close .\DRN_0231.dat
     21974         0 # stress period 233
         open/close .\DRN_0232.dat
     21974         0 # stress period 234
         open/close .\DRN_0233.dat
     21974         0 # stress period 235
         open/close .\DRN_0234.dat
     21974         0 # stress period 236
         open/close .\DRN_0235.dat
     21974         0 # stress period 237
         open/close .\DRN_0236.dat
     21974         0 # stress period 238
         open/close .\DRN_0237.dat
     21974         0 # stress period 239
         open/close .\DRN_0238.dat
     21974         0 # stress period 240
         open/close .\DRN_0239.dat
     21974         0 # stress period 241
         open/close .\DRN_0240.dat
     21974         0 # stress period 242
         open/close .\DRN_0241.dat
     21974         0 # stress period 243
         open/close .\DRN_0242.dat
     21974         0 # stress period 244
         open/close .\DRN_0243.dat
     21974         0 # stress period 245
         open/close .\DRN_0244.dat
     21974         0 # stress period 246
         open/close .\DRN_0245.dat
     21974         0 # stress period 247
         open/close .\DRN_0246.dat
     21974         0 # stress period 248
         open/close .\DRN_0247.dat
     21974         0 # stress period 249
         open/close .\DRN_0248.dat
     21974         0 # stress period 250
         open/close .\DRN_0249.dat
     21974         0 # stress period 251
         open/close .\DRN_0250.dat
     21974         0 # stress period 252
         open/close .\DRN_0251.dat
     21974         0 # stress period 253
         open/close .\DRN_0252.dat
     21974         0 # stress period 254
         open/close .\DRN_0253.dat
     21974         0 # stress period 255
         open/close .\DRN_0254.dat
     21974         0 # stress period 256
         open/close .\DRN_0255.dat
     21974         0 # stress period 257
         open/close .\DRN_0256.dat
     21974         0 # stress period 258
         open/close .\DRN_0257.dat
     21974         0 # stress period 259
         open/close .\DRN_0258.dat
     21974         0 # stress period 260
         open/close .\DRN_0259.dat
     21974         0 # stress period 261
         open/close .\DRN_0260.dat
     21974         0 # stress period 262
         open/close .\DRN_0261.dat
     21974         0 # stress period 263
         open/close .\DRN_0262.dat
     21974         0 # stress period 264
         open/close .\DRN_0263.dat
     21974         0 # stress period 265
         open/close .\DRN_0264.dat
     21974         0 # stress period 266
         open/close .\DRN_0265.dat
     21974         0 # stress period 267
         open/close .\DRN_0266.dat
     21974         0 # stress period 268
         open/close .\DRN_0267.dat
     21974         0 # stress period 269
         open/close .\DRN_0268.dat
     21974         0 # stress period 270
         open/close .\DRN_0269.dat
     21974         0 # stress period 271
         open/close .\DRN_0270.dat
     21974         0 # stress period 272
         open/close .\DRN_0271.dat
     21974         0 # stress period 273
         open/close .\DRN_0272.dat
     21974         0 # stress period 274
         open/close .\DRN_0273.dat
     21974         0 # stress period 275
         open/close .\DRN_0274.dat
     21974         0 # stress period 276
         open/close .\DRN_0275.dat
     21974         0 # stress period 277
         open/close .\DRN_0276.dat
     21974         0 # stress period 278
         open/close .\DRN_0277.dat
     21974         0 # stress period 279
         open/close .\DRN_0278.dat
     21974         0 # stress period 280
         open/close .\DRN_0279.dat
     21974         0 # stress period 281
         open/close .\DRN_0280.dat
     21974         0 # stress period 282
         open/close .\DRN_0281.dat
     21974         0 # stress period 283
         open/close .\DRN_0282.dat
     21974         0 # stress period 284
         open/close .\DRN_0283.dat
     21974         0 # stress period 285
         open/close .\DRN_0284.dat
     21974         0 # stress period 286
         open/close .\DRN_0285.dat
     21974         0 # stress period 287
         open/close .\DRN_0286.dat
     21974         0 # stress period 288
         open/close .\DRN_0287.dat
     21974         0 # stress period 289
         open/close .\DRN_0288.dat
     21974         0 # stress period 290
         open/close .\DRN_0289.dat
     21974         0 # stress period 291
         open/close .\DRN_0290.dat
     21974         0 # stress period 292
         open/close .\DRN_0291.dat
     21974         0 # stress period 293
         open/close .\DRN_0292.dat
     21974         0 # stress period 294
         open/close .\DRN_0293.dat
     21974         0 # stress period 295
         open/close .\DRN_0294.dat
     21974         0 # stress period 296
         open/close .\DRN_0295.dat
     21974         0 # stress period 297
         open/close .\DRN_0296.dat
     21974         0 # stress period 298
         open/close .\DRN_0297.dat
     21974         0 # stress period 299
         open/close .\DRN_0298.dat
     21974         0 # stress period 300
         open/close .\DRN_0299.dat
     21974         0 # stress period 301
         open/close .\DRN_0300.dat
     21974         0 # stress period 302
         open/close .\DRN_0301.dat
     21974         0 # stress period 303
         open/close .\DRN_0302.dat
     21974         0 # stress period 304
         open/close .\DRN_0303.dat
     21974         0 # stress period 305
         open/close .\DRN_0304.dat
     21974         0 # stress period 306
         open/close .\DRN_0305.dat
     21974         0 # stress period 307
         open/close .\DRN_0306.dat
     21974         0 # stress period 308
         open/close .\DRN_0307.dat
     21974         0 # stress period 309
         open/close .\DRN_0308.dat
     21974         0 # stress period 310
         open/close .\DRN_0309.dat
     21974         0 # stress period 311
         open/close .\DRN_0310.dat
     21974         0 # stress period 312
         open/close .\DRN_0311.dat
     21974         0 # stress period 313
         open/close .\DRN_0312.dat
     21974         0 # stress period 314
         open/close .\DRN_0313.dat
     21974         0 # stress period 315
         open/close .\DRN_0314.dat
     21974         0 # stress period 316
         open/close .\DRN_0315.dat
     21974         0 # stress period 317
         open/close .\DRN_0316.dat
     21974         0 # stress period 318
         open/close .\DRN_0317.dat
     21974         0 # stress period 319
         open/close .\DRN_0318.dat
     21974         0 # stress period 320
         open/close .\DRN_0319.dat
     21974         0 # stress period 321
         open/close .\DRN_0320.dat
     21974         0 # stress period 322
         open/close .\DRN_0321.dat
     21974         0 # stress period 323
         open/close .\DRN_0322.dat
     21974         0 # stress period 324
         open/close .\DRN_0323.dat
     21974         0 # stress period 325
         open/close .\DRN_0324.dat
     21974         0 # stress period 326
         open/close .\DRN_0325.dat
     21974         0 # stress period 327
         open/close .\DRN_0326.dat
     21974         0 # stress period 328
         open/close .\DRN_0327.dat
     21974         0 # stress period 329
         open/close .\DRN_0328.dat
     21974         0 # stress period 330
         open/close .\DRN_0329.dat
     21974         0 # stress period 331
         open/close .\DRN_0330.dat
     21974         0 # stress period 332
         open/close .\DRN_0331.dat
     21974         0 # stress period 333
         open/close .\DRN_0332.dat
     21974         0 # stress period 334
         open/close .\DRN_0333.dat
     21974         0 # stress period 335
         open/close .\DRN_0334.dat
     21974         0 # stress period 336
         open/close .\DRN_0335.dat
     21974         0 # stress period 337
         open/close .\DRN_0336.dat
     21974         0 # stress period 338
         open/close .\DRN_0337.dat
     21974         0 # stress period 339
         open/close .\DRN_0338.dat
     21974         0 # stress period 340
         open/close .\DRN_0339.dat
     21974         0 # stress period 341
         open/close .\DRN_0340.dat
     21974         0 # stress period 342
         open/close .\DRN_0341.dat
     21974         0 # stress period 343
         open/close .\DRN_0342.dat
     21974         0 # stress period 344
         open/close .\DRN_0343.dat
     21974         0 # stress period 345
         open/close .\DRN_0344.dat
     21974         0 # stress period 346
         open/close .\DRN_0345.dat
     21974         0 # stress period 347
         open/close .\DRN_0346.dat
     21974         0 # stress period 348
         open/close .\DRN_0347.dat
     21974         0 # stress period 349
         open/close .\DRN_0348.dat
     21974         0 # stress period 350
         open/close .\DRN_0349.dat
     21974         0 # stress period 351
         open/close .\DRN_0350.dat
     21974         0 # stress period 352
         open/close .\DRN_0351.dat
     21974         0 # stress period 353
         open/close .\DRN_0352.dat
     21974         0 # stress period 354
         open/close .\DRN_0353.dat
     21974         0 # stress period 355
         open/close .\DRN_0354.dat
     21974         0 # stress period 356
         open/close .\DRN_0355.dat
     21974         0 # stress period 357
         open/close .\DRN_0356.dat
     21974         0 # stress period 358
         open/close .\DRN_0357.dat
     21974         0 # stress period 359
         open/close .\DRN_0358.dat
     21974         0 # stress period 360
         open/close .\DRN_0359.dat
     21974         0 # stress period 361
         open/close .\DRN_0360.dat
     21974         0 # stress period 362
         open/close .\DRN_0361.dat
     21974         0 # stress period 363
         open/close .\DRN_0362.dat
     21974         0 # stress period 364
         open/close .\DRN_0363.dat
     21974         0 # stress period 365
         open/close .\DRN_0364.dat
     21974         0 # stress period 366
         open/close .\DRN_0365.dat
     21974         0 # stress period 367
         open/close .\DRN_0366.dat
     21974         0 # stress period 368
         open/close .\DRN_0367.dat
     21974         0 # stress period 369
         open/close .\DRN_0368.dat
     21974         0 # stress period 370
         open/close .\DRN_0369.dat
     21974         0 # stress period 371
         open/close .\DRN_0370.dat
     21974         0 # stress period 372
         open/close .\DRN_0371.dat
     21974         0 # stress period 373
         open/close .\DRN_0372.dat
     21974         0 # stress period 374
         open/close .\DRN_0373.dat
     21974         0 # stress period 375
         open/close .\DRN_0374.dat
     21974         0 # stress period 376
         open/close .\DRN_0375.dat
     21974         0 # stress period 377
         open/close .\DRN_0376.dat
     21974         0 # stress period 378
         open/close .\DRN_0377.dat
     21974         0 # stress period 379
         open/close .\DRN_0378.dat
     21974         0 # stress period 380
         open/close .\DRN_0379.dat
     21974         0 # stress period 381
         open/close .\DRN_0380.dat
     21974         0 # stress period 382
         open/close .\DRN_0381.dat
     21974         0 # stress period 383
         open/close .\DRN_0382.dat
     21974         0 # stress period 384
         open/close .\DRN_0383.dat
     21974         0 # stress period 385
         open/close .\DRN_0384.dat
     21974         0 # stress period 386
         open/close .\DRN_0385.dat
     21974         0 # stress period 387
         open/close .\DRN_0386.dat
     21974         0 # stress period 388
         open/close .\DRN_0387.dat
     21974         0 # stress period 389
         open/close .\DRN_0388.dat
     21974         0 # stress period 390
         open/close .\DRN_0389.dat
     21974         0 # stress period 391
         open/close .\DRN_0390.dat
     21974         0 # stress period 392
         open/close .\DRN_0391.dat
     21974         0 # stress period 393
         open/close .\DRN_0392.dat
     21974         0 # stress period 394
         open/close .\DRN_0393.dat
     21974         0 # stress period 395
         open/close .\DRN_0394.dat