# GMG package for MODFLOW-2005 generated by Flopy 3.3.5
0.01 50 1e-05 50
1.0 1 0 0
0 1 
1.0
