# DIS package for MODFLOW-2005 generated by Flopy 3.3.5
         2       302       501       660         4         2
  0  0
OPEN/CLOSE                      .\delr.ref               1 (501E15.6) -1 delr                          
OPEN/CLOSE                      .\delc.ref               1 (302E15.6) -1 delc                          
OPEN/CLOSE                 .\model_top.ref               1 (501E15.6) -1 model_top                     
OPEN/CLOSE              .\botm_layer_1.ref               1 (501E15.6) -1 botm layer 1                  
OPEN/CLOSE              .\botm_layer_2.ref               1 (501E15.6) -1 botm layer 2                  
     31.000000             5  1.200000  TR 
     31.000000             5  1.200000  TR 
     30.000000             5  1.200000  TR 
     31.000000             5  1.200000  TR 
     30.000000             5  1.200000  TR 
     31.000000             5  1.200000  TR 
     31.000000             5  1.200000  TR 
     28.000000             5  1.200000  TR 
     31.000000             5  1.200000  TR 
     30.000000             5  1.200000  TR 
     31.000000             5  1.200000  TR 
     30.000000             5  1.200000  TR 
     31.000000             5  1.200000  TR 
     31.000000             5  1.200000  TR 
     30.000000             5  1.200000  TR 
     31.000000             5  1.200000  TR 
     30.000000             5  1.200000  TR 
     31.000000             5  1.200000  TR 
     31.000000             5  1.200000  TR 
     28.000000             5  1.200000  TR 
     31.000000             5  1.200000  TR 
     30.000000             5  1.200000  TR 
     31.000000             5  1.200000  TR 
     30.000000             5  1.200000  TR 
     31.000000             5  1.200000  TR 
     31.000000             5  1.200000  TR 
     30.000000             5  1.200000  TR 
     31.000000             5  1.200000  TR 
     30.000000             5  1.200000  TR 
     31.000000             5  1.200000  TR 
     31.000000             5  1.200000  TR 
     28.000000             5  1.200000  TR 
     31.000000             5  1.200000  TR 
     30.000000             5  1.200000  TR 
     31.000000             5  1.200000  TR 
     30.000000             5  1.200000  TR 
     31.000000             5  1.200000  TR 
     31.000000             5  1.200000  TR 
     30.000000             5  1.200000  TR 
     31.000000             5  1.200000  TR 
     30.000000             5  1.200000  TR 
     31.000000             5  1.200000  TR 
     31.000000             5  1.200000  TR 
     29.000000             5  1.200000  TR 
     31.000000             5  1.200000  TR 
     30.000000             5  1.200000  TR 
     31.000000             5  1.200000  TR 
     30.000000             5  1.200000  TR 
     31.000000             5  1.200000  TR 
     31.000000             5  1.200000  TR 
     30.000000             5  1.200000  TR 
     31.000000             5  1.200000  TR 
     30.000000             5  1.200000  TR 
     31.000000             5  1.200000  TR 
     31.000000             5  1.200000  TR 
     28.000000             5  1.200000  TR 
     31.000000             5  1.200000  TR 
     30.000000             5  1.200000  TR 
     31.000000             5  1.200000  TR 
     30.000000             5  1.200000  TR 
     31.000000             5  1.200000  TR 
     31.000000             5  1.200000  TR 
     30.000000             5  1.200000  TR 
     31.000000             5  1.200000  TR 
     30.000000             5  1.200000  TR 
     31.000000             5  1.200000  TR 
     31.000000             5  1.200000  TR 
     28.000000             5  1.200000  TR 
     31.000000             5  1.200000  TR 
     30.000000             5  1.200000  TR 
     31.000000             5  1.200000  TR 
     30.000000             5  1.200000  TR 
     31.000000             5  1.200000  TR 
     31.000000             5  1.200000  TR 
     30.000000             5  1.200000  TR 
     31.000000             5  1.200000  TR 
     30.000000             5  1.200000  TR 
     31.000000             5  1.200000  TR 
     31.000000             5  1.200000  TR 
     28.000000             5  1.200000  TR 
     31.000000             5  1.200000  TR 
     30.000000             5  1.200000  TR 
     31.000000             5  1.200000  TR 
     30.000000             5  1.200000  TR 
     31.000000             5  1.200000  TR 
     31.000000             5  1.200000  TR 
     30.000000             5  1.200000  TR 
     31.000000             5  1.200000  TR 
     30.000000             5  1.200000  TR 
     31.000000             5  1.200000  TR 
     31.000000             5  1.200000  TR 
     29.000000             5  1.200000  TR 
     31.000000             5  1.200000  TR 
     30.000000             5  1.200000  TR 
     31.000000             5  1.200000  TR 
     30.000000             5  1.200000  TR 
     31.000000             5  1.200000  TR 
     31.000000             5  1.200000  TR 
     30.000000             5  1.200000  TR 
     31.000000             5  1.200000  TR 
     30.000000             5  1.200000  TR 
     31.000000             5  1.200000  TR 
     31.000000             5  1.200000  TR 
     28.000000             5  1.200000  TR 
     31.000000             5  1.200000  TR 
     30.000000             5  1.200000  TR 
     31.000000             5  1.200000  TR 
     30.000000             5  1.200000  TR 
     31.000000             5  1.200000  TR 
     31.000000             5  1.200000  TR 
     30.000000             5  1.200000  TR 
     31.000000             5  1.200000  TR 
     30.000000             5  1.200000  TR 
     31.000000             5  1.200000  TR 
     31.000000             5  1.200000  TR 
     28.000000             5  1.200000  TR 
     31.000000             5  1.200000  TR 
     30.000000             5  1.200000  TR 
     31.000000             5  1.200000  TR 
     30.000000             5  1.200000  TR 
     31.000000             5  1.200000  TR 
     31.000000             5  1.200000  TR 
     30.000000             5  1.200000  TR 
     31.000000             5  1.200000  TR 
     30.000000             5  1.200000  TR 
     31.000000             5  1.200000  TR 
     31.000000             5  1.200000  TR 
     28.000000             5  1.200000  TR 
     31.000000             5  1.200000  TR 
     30.000000             5  1.200000  TR 
     31.000000             5  1.200000  TR 
     30.000000             5  1.200000  TR 
     31.000000             5  1.200000  TR 
     31.000000             5  1.200000  TR 
     30.000000             5  1.200000  TR 
     31.000000             5  1.200000  TR 
     30.000000             5  1.200000  TR 
     31.000000             5  1.200000  TR 
     31.000000             5  1.200000  TR 
     29.000000             5  1.200000  TR 
     31.000000             5  1.200000  TR 
     30.000000             5  1.200000  TR 
     31.000000             5  1.200000  TR 
     30.000000             5  1.200000  TR 
     31.000000             5  1.200000  TR 
     31.000000             5  1.200000  TR 
     30.000000             5  1.200000  TR 
     31.000000             5  1.200000  TR 
     30.000000             5  1.200000  TR 
     31.000000             5  1.200000  TR 
     31.000000             5  1.200000  TR 
     28.000000             5  1.200000  TR 
     31.000000             5  1.200000  TR 
     30.000000             5  1.200000  TR 
     31.000000             5  1.200000  TR 
     30.000000             5  1.200000  TR 
     31.000000             5  1.200000  TR 
     31.000000             5  1.200000  TR 
     30.000000             5  1.200000  TR 
     31.000000             5  1.200000  TR 
     30.000000             5  1.200000  TR 
     31.000000             5  1.200000  TR 
     31.000000             5  1.200000  TR 
     28.000000             5  1.200000  TR 
     31.000000             5  1.200000  TR 
     30.000000             5  1.200000  TR 
     31.000000             5  1.200000  TR 
     30.000000             5  1.200000  TR 
     31.000000             5  1.200000  TR 
     31.000000             5  1.200000  TR 
     30.000000             5  1.200000  TR 
     31.000000             5  1.200000  TR 
     30.000000             5  1.200000  TR 
     31.000000             5  1.200000  TR 
     31.000000             5  1.200000  TR 
     28.000000             5  1.200000  TR 
     31.000000             5  1.200000  TR 
     30.000000             5  1.200000  TR 
     31.000000             5  1.200000  TR 
     30.000000             5  1.200000  TR 
     31.000000             5  1.200000  TR 
     31.000000             5  1.200000  TR 
     30.000000             5  1.200000  TR 
     31.000000             5  1.200000  TR 
     30.000000             5  1.200000  TR 
     31.000000             5  1.200000  TR 
     31.000000             5  1.200000  TR 
     29.000000             5  1.200000  TR 
     31.000000             5  1.200000  TR 
     30.000000             5  1.200000  TR 
     31.000000             5  1.200000  TR 
     30.000000             5  1.200000  TR 
     31.000000             5  1.200000  TR 
     31.000000             5  1.200000  TR 
     30.000000             5  1.200000  TR 
     31.000000             5  1.200000  TR 
     30.000000             5  1.200000  TR 
     31.000000             5  1.200000  TR 
     31.000000             5  1.200000  TR 
     28.000000             5  1.200000  TR 
     31.000000             5  1.200000  TR 
     30.000000             5  1.200000  TR 
     31.000000             5  1.200000  TR 
     30.000000             5  1.200000  TR 
     31.000000             5  1.200000  TR 
     31.000000             5  1.200000  TR 
     30.000000             5  1.200000  TR 
     31.000000             5  1.200000  TR 
     30.000000             5  1.200000  TR 
     31.000000             5  1.200000  TR 
     31.000000             5  1.200000  TR 
     28.000000             5  1.200000  TR 
     31.000000             5  1.200000  TR 
     30.000000             5  1.200000  TR 
     31.000000             5  1.200000  TR 
     30.000000             5  1.200000  TR 
     31.000000             5  1.200000  TR 
     31.000000             5  1.200000  TR 
     30.000000             5  1.200000  TR 
     31.000000             5  1.200000  TR 
     30.000000             5  1.200000  TR 
     31.000000             5  1.200000  TR 
     31.000000             5  1.200000  TR 
     28.000000             5  1.200000  TR 
     31.000000             5  1.200000  TR 
     30.000000             5  1.200000  TR 
     31.000000             5  1.200000  TR 
     30.000000             5  1.200000  TR 
     31.000000             5  1.200000  TR 
     31.000000             5  1.200000  TR 
     30.000000             5  1.200000  TR 
     31.000000             5  1.200000  TR 
     30.000000             5  1.200000  TR 
     31.000000             5  1.200000  TR 
     31.000000             5  1.200000  TR 
     29.000000             5  1.200000  TR 
     31.000000             5  1.200000  TR 
     30.000000             5  1.200000  TR 
     31.000000             5  1.200000  TR 
     30.000000             5  1.200000  TR 
     31.000000             5  1.200000  TR 
     31.000000             5  1.200000  TR 
     30.000000             5  1.200000  TR 
     31.000000             5  1.200000  TR 
     30.000000             5  1.200000  TR 
     31.000000             5  1.200000  TR 
     31.000000             5  1.200000  TR 
     28.000000             5  1.200000  TR 
     31.000000             5  1.200000  TR 
     30.000000             5  1.200000  TR 
     31.000000             5  1.200000  TR 
     30.000000             5  1.200000  TR 
     31.000000             5  1.200000  TR 
     31.000000             5  1.200000  TR 
     30.000000             5  1.200000  TR 
     31.000000             5  1.200000  TR 
     30.000000             5  1.200000  TR 
     31.000000             5  1.200000  TR 
     31.000000             5  1.200000  TR 
     28.000000             5  1.200000  TR 
     31.000000             5  1.200000  TR 
     30.000000             5  1.200000  TR 
     31.000000             5  1.200000  TR 
     30.000000             5  1.200000  TR 
     31.000000             5  1.200000  TR 
     31.000000             5  1.200000  TR 
     30.000000             5  1.200000  TR 
     31.000000             5  1.200000  TR 
     30.000000             5  1.200000  TR 
     31.000000             5  1.200000  TR 
     31.000000             5  1.200000  TR 
     28.000000             5  1.200000  TR 
     31.000000             5  1.200000  TR 
     30.000000             5  1.200000  TR 
     31.000000             5  1.200000  TR 
     30.000000             5  1.200000  TR 
     31.000000             5  1.200000  TR 
     31.000000             5  1.200000  TR 
     30.000000             5  1.200000  TR 
     31.000000             5  1.200000  TR 
     30.000000             5  1.200000  TR 
     31.000000             5  1.200000  TR 
     31.000000             5  1.200000  TR 
     29.000000             5  1.200000  TR 
     31.000000             5  1.200000  TR 
     30.000000             5  1.200000  TR 
     31.000000             5  1.200000  TR 
     30.000000             5  1.200000  TR 
     31.000000             5  1.200000  TR 
     31.000000             5  1.200000  TR 
     30.000000             5  1.200000  TR 
     31.000000             5  1.200000  TR 
     30.000000             5  1.200000  TR 
     31.000000             5  1.200000  TR 
     31.000000             5  1.200000  TR 
     28.000000             5  1.200000  TR 
     31.000000             5  1.200000  TR 
     30.000000             5  1.200000  TR 
     31.000000             5  1.200000  TR 
     30.000000             5  1.200000  TR 
     31.000000             5  1.200000  TR 
     31.000000             5  1.200000  TR 
     30.000000             5  1.200000  TR 
     31.000000             5  1.200000  TR 
     30.000000             5  1.200000  TR 
     31.000000             5  1.200000  TR 
     31.000000             5  1.200000  TR 
     28.000000             5  1.200000  TR 
     31.000000             5  1.200000  TR 
     30.000000             5  1.200000  TR 
     31.000000             5  1.200000  TR 
     30.000000             5  1.200000  TR 
     31.000000             5  1.200000  TR 
     31.000000             5  1.200000  TR 
     30.000000             5  1.200000  TR 
     31.000000             5  1.200000  TR 
     30.000000             5  1.200000  TR 
     31.000000             5  1.200000  TR 
     31.000000             5  1.200000  TR 
     28.000000             5  1.200000  TR 
     31.000000             5  1.200000  TR 
     30.000000             5  1.200000  TR 
     31.000000             5  1.200000  TR 
     30.000000             5  1.200000  TR 
     31.000000             5  1.200000  TR 
     31.000000             5  1.200000  TR 
     30.000000             5  1.200000  TR 
     31.000000             5  1.200000  TR 
     30.000000             5  1.200000  TR 
     31.000000             5  1.200000  TR 
     31.000000             5  1.200000  TR 
     29.000000             5  1.200000  TR 
     31.000000             5  1.200000  TR 
     30.000000             5  1.200000  TR 
     31.000000             5  1.200000  TR 
     30.000000             5  1.200000  TR 
     31.000000             5  1.200000  TR 
     31.000000             5  1.200000  TR 
     30.000000             5  1.200000  TR 
     31.000000             5  1.200000  TR 
     30.000000             5  1.200000  TR 
     31.000000             5  1.200000  TR 
     31.000000             5  1.200000  TR 
     28.000000             5  1.200000  TR 
     31.000000             5  1.200000  TR 
     30.000000             5  1.200000  TR 
     31.000000             5  1.200000  TR 
     30.000000             5  1.200000  TR 
     31.000000             5  1.200000  TR 
     31.000000             5  1.200000  TR 
     30.000000             5  1.200000  TR 
     31.000000             5  1.200000  TR 
     30.000000             5  1.200000  TR 
     31.000000             5  1.200000  TR 
     31.000000             5  1.200000  TR 
     28.000000             5  1.200000  TR 
     31.000000             5  1.200000  TR 
     30.000000             5  1.200000  TR 
     31.000000             5  1.200000  TR 
     30.000000             5  1.200000  TR 
     31.000000             5  1.200000  TR 
     31.000000             5  1.200000  TR 
     30.000000             5  1.200000  TR 
     31.000000             5  1.200000  TR 
     30.000000             5  1.200000  TR 
     31.000000             5  1.200000  TR 
     31.000000             5  1.200000  TR 
     28.000000             5  1.200000  TR 
     31.000000             5  1.200000  TR 
     30.000000             5  1.200000  TR 
     31.000000             5  1.200000  TR 
     30.000000             5  1.200000  TR 
     31.000000             5  1.200000  TR 
     31.000000             5  1.200000  TR 
     30.000000             5  1.200000  TR 
     31.000000             5  1.200000  TR 
     30.000000             5  1.200000  TR 
     31.000000             5  1.200000  TR 
     31.000000             5  1.200000  TR 
     29.000000             5  1.200000  TR 
     31.000000             5  1.200000  TR 
     30.000000             5  1.200000  TR 
     31.000000             5  1.200000  TR 
     30.000000             5  1.200000  TR 
     31.000000             5  1.200000  TR 
     31.000000             5  1.200000  TR 
     30.000000             5  1.200000  TR 
     31.000000             5  1.200000  TR 
     30.000000             5  1.200000  TR 
     31.000000             5  1.200000  TR 
     31.000000             5  1.200000  TR 
     28.000000             5  1.200000  TR 
     31.000000             5  1.200000  TR 
     30.000000             5  1.200000  TR 
     31.000000             5  1.200000  TR 
     30.000000             5  1.200000  TR 
     31.000000             5  1.200000  TR 
     31.000000             5  1.200000  TR 
     30.000000             5  1.200000  TR 
     31.000000             5  1.200000  TR 
     30.000000             5  1.200000  TR 
     31.000000             5  1.200000  TR 
     31.000000             5  1.200000  TR 
     28.000000             5  1.200000  TR 
     31.000000             5  1.200000  TR 
     30.000000             5  1.200000  TR 
     31.000000             5  1.200000  TR 
     30.000000             5  1.200000  TR 
     31.000000             5  1.200000  TR 
     31.000000             5  1.200000  TR 
     30.000000             5  1.200000  TR 
     31.000000             5  1.200000  TR 
     30.000000             5  1.200000  TR 
     31.000000             5  1.200000  TR 
     31.000000             5  1.200000  TR 
     28.000000             5  1.200000  TR 
     31.000000             5  1.200000  TR 
     30.000000             5  1.200000  TR 
     31.000000             5  1.200000  TR 
     30.000000             5  1.200000  TR 
     31.000000             5  1.200000  TR 
     31.000000             5  1.200000  TR 
     30.000000             5  1.200000  TR 
     31.000000             5  1.200000  TR 
     30.000000             5  1.200000  TR 
     31.000000             5  1.200000  TR 
     31.000000             5  1.200000  TR 
     28.000000             5  1.200000  TR 
     31.000000             5  1.200000  TR 
     30.000000             5  1.200000  TR 
     31.000000             5  1.200000  TR 
     30.000000             5  1.200000  TR 
     31.000000             5  1.200000  TR 
     31.000000             5  1.200000  TR 
     30.000000             5  1.200000  TR 
     31.000000             5  1.200000  TR 
     30.000000             5  1.200000  TR 
     31.000000             5  1.200000  TR 
     31.000000             5  1.200000  TR 
     28.000000             5  1.200000  TR 
     31.000000             5  1.200000  TR 
     30.000000             5  1.200000  TR 
     31.000000             5  1.200000  TR 
     30.000000             5  1.200000  TR 
     31.000000             5  1.200000  TR 
     31.000000             5  1.200000  TR 
     30.000000             5  1.200000  TR 
     31.000000             5  1.200000  TR 
     30.000000             5  1.200000  TR 
     31.000000             5  1.200000  TR 
     31.000000             5  1.200000  TR 
     29.000000             5  1.200000  TR 
     31.000000             5  1.200000  TR 
     30.000000             5  1.200000  TR 
     31.000000             5  1.200000  TR 
     30.000000             5  1.200000  TR 
     31.000000             5  1.200000  TR 
     31.000000             5  1.200000  TR 
     30.000000             5  1.200000  TR 
     31.000000             5  1.200000  TR 
     30.000000             5  1.200000  TR 
     31.000000             5  1.200000  TR 
     31.000000             5  1.200000  TR 
     28.000000             5  1.200000  TR 
     31.000000             5  1.200000  TR 
     30.000000             5  1.200000  TR 
     31.000000             5  1.200000  TR 
     30.000000             5  1.200000  TR 
     31.000000             5  1.200000  TR 
     31.000000             5  1.200000  TR 
     30.000000             5  1.200000  TR 
     31.000000             5  1.200000  TR 
     30.000000             5  1.200000  TR 
     31.000000             5  1.200000  TR 
     31.000000             5  1.200000  TR 
     28.000000             5  1.200000  TR 
     31.000000             5  1.200000  TR 
     30.000000             5  1.200000  TR 
     31.000000             5  1.200000  TR 
     30.000000             5  1.200000  TR 
     31.000000             5  1.200000  TR 
     31.000000             5  1.200000  TR 
     30.000000             5  1.200000  TR 
     31.000000             5  1.200000  TR 
     30.000000             5  1.200000  TR 
     31.000000             5  1.200000  TR 
     31.000000             5  1.200000  TR 
     28.000000             5  1.200000  TR 
     31.000000             5  1.200000  TR 
     30.000000             5  1.200000  TR 
     31.000000             5  1.200000  TR 
     30.000000             5  1.200000  TR 
     31.000000             5  1.200000  TR 
     31.000000             5  1.200000  TR 
     30.000000             5  1.200000  TR 
     31.000000             5  1.200000  TR 
     30.000000             5  1.200000  TR 
     31.000000             5  1.200000  TR 
     31.000000             5  1.200000  TR 
     29.000000             5  1.200000  TR 
     31.000000             5  1.200000  TR 
     30.000000             5  1.200000  TR 
     31.000000             5  1.200000  TR 
     30.000000             5  1.200000  TR 
     31.000000             5  1.200000  TR 
     31.000000             5  1.200000  TR 
     30.000000             5  1.200000  TR 
     31.000000             5  1.200000  TR 
     30.000000             5  1.200000  TR 
     31.000000             5  1.200000  TR 
     31.000000             5  1.200000  TR 
     28.000000             5  1.200000  TR 
     31.000000             5  1.200000  TR 
     30.000000             5  1.200000  TR 
     31.000000             5  1.200000  TR 
     30.000000             5  1.200000  TR 
     31.000000             5  1.200000  TR 
     31.000000             5  1.200000  TR 
     30.000000             5  1.200000  TR 
     31.000000             5  1.200000  TR 
     30.000000             5  1.200000  TR 
     31.000000             5  1.200000  TR 
     31.000000             5  1.200000  TR 
     28.000000             5  1.200000  TR 
     31.000000             5  1.200000  TR 
     30.000000             5  1.200000  TR 
     31.000000             5  1.200000  TR 
     30.000000             5  1.200000  TR 
     31.000000             5  1.200000  TR 
     31.000000             5  1.200000  TR 
     30.000000             5  1.200000  TR 
     31.000000             5  1.200000  TR 
     30.000000             5  1.200000  TR 
     31.000000             5  1.200000  TR 
     31.000000             5  1.200000  TR 
     28.000000             5  1.200000  TR 
     31.000000             5  1.200000  TR 
     30.000000             5  1.200000  TR 
     31.000000             5  1.200000  TR 
     30.000000             5  1.200000  TR 
     31.000000             5  1.200000  TR 
     31.000000             5  1.200000  TR 
     30.000000             5  1.200000  TR 
     31.000000             5  1.200000  TR 
     30.000000             5  1.200000  TR 
     31.000000             5  1.200000  TR 
     31.000000             5  1.200000  TR 
     28.000000             5  1.200000  TR 
     31.000000             5  1.200000  TR 
     30.000000             5  1.200000  TR 
     31.000000             5  1.200000  TR 
     30.000000             5  1.200000  TR 
     31.000000             5  1.200000  TR 
     31.000000             5  1.200000  TR 
     30.000000             5  1.200000  TR 
     31.000000             5  1.200000  TR 
     30.000000             5  1.200000  TR 
     31.000000             5  1.200000  TR 
     31.000000             5  1.200000  TR 
     28.000000             5  1.200000  TR 
     31.000000             5  1.200000  TR 
     30.000000             5  1.200000  TR 
     31.000000             5  1.200000  TR 
     30.000000             5  1.200000  TR 
     31.000000             5  1.200000  TR 
     31.000000             5  1.200000  TR 
     30.000000             5  1.200000  TR 
     31.000000             5  1.200000  TR 
     30.000000             5  1.200000  TR 
     31.000000             5  1.200000  TR 
     31.000000             5  1.200000  TR 
     29.000000             5  1.200000  TR 
     31.000000             5  1.200000  TR 
     30.000000             5  1.200000  TR 
     31.000000             5  1.200000  TR 
     30.000000             5  1.200000  TR 
     31.000000             5  1.200000  TR 
     31.000000             5  1.200000  TR 
     30.000000             5  1.200000  TR 
     31.000000             5  1.200000  TR 
     30.000000             5  1.200000  TR 
     31.000000             5  1.200000  TR 
     31.000000             5  1.200000  TR 
     28.000000             5  1.200000  TR 
     31.000000             5  1.200000  TR 
     30.000000             5  1.200000  TR 
     31.000000             5  1.200000  TR 
     30.000000             5  1.200000  TR 
     31.000000             5  1.200000  TR 
     31.000000             5  1.200000  TR 
     30.000000             5  1.200000  TR 
     31.000000             5  1.200000  TR 
     30.000000             5  1.200000  TR 
     31.000000             5  1.200000  TR 
     31.000000             5  1.200000  TR 
     28.000000             5  1.200000  TR 
     31.000000             5  1.200000  TR 
     30.000000             5  1.200000  TR 
     31.000000             5  1.200000  TR 
     30.000000             5  1.200000  TR 
     31.000000             5  1.200000  TR 
     31.000000             5  1.200000  TR 
     30.000000             5  1.200000  TR 
     31.000000             5  1.200000  TR 
     30.000000             5  1.200000  TR 
     31.000000             5  1.200000  TR 
     31.000000             5  1.200000  TR 
     28.000000             5  1.200000  TR 
     31.000000             5  1.200000  TR 
     30.000000             5  1.200000  TR 
     31.000000             5  1.200000  TR 
     30.000000             5  1.200000  TR 
     31.000000             5  1.200000  TR 
     31.000000             5  1.200000  TR 
     30.000000             5  1.200000  TR 
     31.000000             5  1.200000  TR 
     30.000000             5  1.200000  TR 
     31.000000             5  1.200000  TR 
     31.000000             5  1.200000  TR 
     29.000000             5  1.200000  TR 
     31.000000             5  1.200000  TR 
     30.000000             5  1.200000  TR 
     31.000000             5  1.200000  TR 
     30.000000             5  1.200000  TR 
     31.000000             5  1.200000  TR 
     31.000000             5  1.200000  TR 
     30.000000             5  1.200000  TR 
     31.000000             5  1.200000  TR 
     30.000000             5  1.200000  TR 
     31.000000             5  1.200000  TR 
     31.000000             5  1.200000  TR 
     28.000000             5  1.200000  TR 
     31.000000             5  1.200000  TR 
     30.000000             5  1.200000  TR 
     31.000000             5  1.200000  TR 
     30.000000             5  1.200000  TR 
     31.000000             5  1.200000  TR 
     31.000000             5  1.200000  TR 
     30.000000             5  1.200000  TR 
     31.000000             5  1.200000  TR 
     30.000000             5  1.200000  TR 
     31.000000             5  1.200000  TR 
     31.000000             5  1.200000  TR 
     28.000000             5  1.200000  TR 
     31.000000             5  1.200000  TR 
     30.000000             5  1.200000  TR 
     31.000000             5  1.200000  TR 
     30.000000             5  1.200000  TR 
     31.000000             5  1.200000  TR 
     31.000000             5  1.200000  TR 
     30.000000             5  1.200000  TR 
     31.000000             5  1.200000  TR 
     30.000000             5  1.200000  TR 
     31.000000             5  1.200000  TR 
     31.000000             5  1.200000  TR 
     28.000000             5  1.200000  TR 
     31.000000             5  1.200000  TR 
     30.000000             5  1.200000  TR 
     31.000000             5  1.200000  TR 
     30.000000             5  1.200000  TR 
