# OC package for MODFLOW-2005 generated by Flopy 3.3.5
HEAD PRINT FORMAT   0
HEAD SAVE UNIT    30
DRAWDOWN PRINT FORMAT   0
COMPACT BUDGET AUX

period 1 step 5 
  save head
  save budget
  print budget

period 2 step 5 
  save head
  save budget
  print budget

period 3 step 5 
  save head
  save budget
  print budget

period 4 step 5 
  save head
  save budget
  print budget

period 5 step 5 
  save head
  save budget
  print budget

period 6 step 5 
  save head
  save budget
  print budget

period 7 step 5 
  save head
  save budget
  print budget

period 8 step 5 
  save head
  save budget
  print budget

period 9 step 5 
  save head
  save budget
  print budget

period 10 step 5 
  save head
  save budget
  print budget

period 11 step 5 
  save head
  save budget
  print budget

period 12 step 5 
  save head
  save budget
  print budget

period 13 step 5 
  save head
  save budget
  print budget

period 14 step 5 
  save head
  save budget
  print budget

period 15 step 5 
  save head
  save budget
  print budget

period 16 step 5 
  save head
  save budget
  print budget

period 17 step 5 
  save head
  save budget
  print budget

period 18 step 5 
  save head
  save budget
  print budget

period 19 step 5 
  save head
  save budget
  print budget

period 20 step 5 
  save head
  save budget
  print budget

period 21 step 5 
  save head
  save budget
  print budget

period 22 step 5 
  save head
  save budget
  print budget

period 23 step 5 
  save head
  save budget
  print budget

period 24 step 5 
  save head
  save budget
  print budget

period 25 step 5 
  save head
  save budget
  print budget

period 26 step 5 
  save head
  save budget
  print budget

period 27 step 5 
  save head
  save budget
  print budget

period 28 step 5 
  save head
  save budget
  print budget

period 29 step 5 
  save head
  save budget
  print budget

period 30 step 5 
  save head
  save budget
  print budget

period 31 step 5 
  save head
  save budget
  print budget

period 32 step 5 
  save head
  save budget
  print budget

period 33 step 5 
  save head
  save budget
  print budget

period 34 step 5 
  save head
  save budget
  print budget

period 35 step 5 
  save head
  save budget
  print budget

period 36 step 5 
  save head
  save budget
  print budget

period 37 step 5 
  save head
  save budget
  print budget

period 38 step 5 
  save head
  save budget
  print budget

period 39 step 5 
  save head
  save budget
  print budget

period 40 step 5 
  save head
  save budget
  print budget

period 41 step 5 
  save head
  save budget
  print budget

period 42 step 5 
  save head
  save budget
  print budget

period 43 step 5 
  save head
  save budget
  print budget

period 44 step 5 
  save head
  save budget
  print budget

period 45 step 5 
  save head
  save budget
  print budget

period 46 step 5 
  save head
  save budget
  print budget

period 47 step 5 
  save head
  save budget
  print budget

period 48 step 5 
  save head
  save budget
  print budget

period 49 step 5 
  save head
  save budget
  print budget

period 50 step 5 
  save head
  save budget
  print budget

period 51 step 5 
  save head
  save budget
  print budget

period 52 step 5 
  save head
  save budget
  print budget

period 53 step 5 
  save head
  save budget
  print budget

period 54 step 5 
  save head
  save budget
  print budget

period 55 step 5 
  save head
  save budget
  print budget

period 56 step 5 
  save head
  save budget
  print budget

period 57 step 5 
  save head
  save budget
  print budget

period 58 step 5 
  save head
  save budget
  print budget

period 59 step 5 
  save head
  save budget
  print budget

period 60 step 5 
  save head
  save budget
  print budget

period 61 step 5 
  save head
  save budget
  print budget

period 62 step 5 
  save head
  save budget
  print budget

period 63 step 5 
  save head
  save budget
  print budget

period 64 step 5 
  save head
  save budget
  print budget

period 65 step 5 
  save head
  save budget
  print budget

period 66 step 5 
  save head
  save budget
  print budget

period 67 step 5 
  save head
  save budget
  print budget

period 68 step 5 
  save head
  save budget
  print budget

period 69 step 5 
  save head
  save budget
  print budget

period 70 step 5 
  save head
  save budget
  print budget

period 71 step 5 
  save head
  save budget
  print budget

period 72 step 5 
  save head
  save budget
  print budget

period 73 step 5 
  save head
  save budget
  print budget

period 74 step 5 
  save head
  save budget
  print budget

period 75 step 5 
  save head
  save budget
  print budget

period 76 step 5 
  save head
  save budget
  print budget

period 77 step 5 
  save head
  save budget
  print budget

period 78 step 5 
  save head
  save budget
  print budget

period 79 step 5 
  save head
  save budget
  print budget

period 80 step 5 
  save head
  save budget
  print budget

period 81 step 5 
  save head
  save budget
  print budget

period 82 step 5 
  save head
  save budget
  print budget

period 83 step 5 
  save head
  save budget
  print budget

period 84 step 5 
  save head
  save budget
  print budget

period 85 step 5 
  save head
  save budget
  print budget

period 86 step 5 
  save head
  save budget
  print budget

period 87 step 5 
  save head
  save budget
  print budget

period 88 step 5 
  save head
  save budget
  print budget

period 89 step 5 
  save head
  save budget
  print budget

period 90 step 5 
  save head
  save budget
  print budget

period 91 step 5 
  save head
  save budget
  print budget

period 92 step 5 
  save head
  save budget
  print budget

period 93 step 5 
  save head
  save budget
  print budget

period 94 step 5 
  save head
  save budget
  print budget

period 95 step 5 
  save head
  save budget
  print budget

period 96 step 5 
  save head
  save budget
  print budget

period 97 step 5 
  save head
  save budget
  print budget

period 98 step 5 
  save head
  save budget
  print budget

period 99 step 5 
  save head
  save budget
  print budget

period 100 step 5 
  save head
  save budget
  print budget

period 101 step 5 
  save head
  save budget
  print budget

period 102 step 5 
  save head
  save budget
  print budget

period 103 step 5 
  save head
  save budget
  print budget

period 104 step 5 
  save head
  save budget
  print budget

period 105 step 5 
  save head
  save budget
  print budget

period 106 step 5 
  save head
  save budget
  print budget

period 107 step 5 
  save head
  save budget
  print budget

period 108 step 5 
  save head
  save budget
  print budget

period 109 step 5 
  save head
  save budget
  print budget

period 110 step 5 
  save head
  save budget
  print budget

period 111 step 5 
  save head
  save budget
  print budget

period 112 step 5 
  save head
  save budget
  print budget

period 113 step 5 
  save head
  save budget
  print budget

period 114 step 5 
  save head
  save budget
  print budget

period 115 step 5 
  save head
  save budget
  print budget

period 116 step 5 
  save head
  save budget
  print budget

period 117 step 5 
  save head
  save budget
  print budget

period 118 step 5 
  save head
  save budget
  print budget

period 119 step 5 
  save head
  save budget
  print budget

period 120 step 5 
  save head
  save budget
  print budget

period 121 step 5 
  save head
  save budget
  print budget

period 122 step 5 
  save head
  save budget
  print budget

period 123 step 5 
  save head
  save budget
  print budget

period 124 step 5 
  save head
  save budget
  print budget

period 125 step 5 
  save head
  save budget
  print budget

period 126 step 5 
  save head
  save budget
  print budget

period 127 step 5 
  save head
  save budget
  print budget

period 128 step 5 
  save head
  save budget
  print budget

period 129 step 5 
  save head
  save budget
  print budget

period 130 step 5 
  save head
  save budget
  print budget

period 131 step 5 
  save head
  save budget
  print budget

period 132 step 5 
  save head
  save budget
  print budget

period 133 step 5 
  save head
  save budget
  print budget

period 134 step 5 
  save head
  save budget
  print budget

period 135 step 5 
  save head
  save budget
  print budget

period 136 step 5 
  save head
  save budget
  print budget

period 137 step 5 
  save head
  save budget
  print budget

period 138 step 5 
  save head
  save budget
  print budget

period 139 step 5 
  save head
  save budget
  print budget

period 140 step 5 
  save head
  save budget
  print budget

period 141 step 5 
  save head
  save budget
  print budget

period 142 step 5 
  save head
  save budget
  print budget

period 143 step 5 
  save head
  save budget
  print budget

period 144 step 5 
  save head
  save budget
  print budget

period 145 step 5 
  save head
  save budget
  print budget

period 146 step 5 
  save head
  save budget
  print budget

period 147 step 5 
  save head
  save budget
  print budget

period 148 step 5 
  save head
  save budget
  print budget

period 149 step 5 
  save head
  save budget
  print budget

period 150 step 5 
  save head
  save budget
  print budget

period 151 step 5 
  save head
  save budget
  print budget

period 152 step 5 
  save head
  save budget
  print budget

period 153 step 5 
  save head
  save budget
  print budget

period 154 step 5 
  save head
  save budget
  print budget

period 155 step 5 
  save head
  save budget
  print budget

period 156 step 5 
  save head
  save budget
  print budget

period 157 step 5 
  save head
  save budget
  print budget

period 158 step 5 
  save head
  save budget
  print budget

period 159 step 5 
  save head
  save budget
  print budget

period 160 step 5 
  save head
  save budget
  print budget

period 161 step 5 
  save head
  save budget
  print budget

period 162 step 5 
  save head
  save budget
  print budget

period 163 step 5 
  save head
  save budget
  print budget

period 164 step 5 
  save head
  save budget
  print budget

period 165 step 5 
  save head
  save budget
  print budget

period 166 step 5 
  save head
  save budget
  print budget

period 167 step 5 
  save head
  save budget
  print budget

period 168 step 5 
  save head
  save budget
  print budget

period 169 step 5 
  save head
  save budget
  print budget

period 170 step 5 
  save head
  save budget
  print budget

period 171 step 5 
  save head
  save budget
  print budget

period 172 step 5 
  save head
  save budget
  print budget

period 173 step 5 
  save head
  save budget
  print budget

period 174 step 5 
  save head
  save budget
  print budget

period 175 step 5 
  save head
  save budget
  print budget

period 176 step 5 
  save head
  save budget
  print budget

period 177 step 5 
  save head
  save budget
  print budget

period 178 step 5 
  save head
  save budget
  print budget

period 179 step 5 
  save head
  save budget
  print budget

period 180 step 5 
  save head
  save budget
  print budget

period 181 step 5 
  save head
  save budget
  print budget

period 182 step 5 
  save head
  save budget
  print budget

period 183 step 5 
  save head
  save budget
  print budget

period 184 step 5 
  save head
  save budget
  print budget

period 185 step 5 
  save head
  save budget
  print budget

period 186 step 5 
  save head
  save budget
  print budget

period 187 step 5 
  save head
  save budget
  print budget

period 188 step 5 
  save head
  save budget
  print budget

period 189 step 5 
  save head
  save budget
  print budget

period 190 step 5 
  save head
  save budget
  print budget

period 191 step 5 
  save head
  save budget
  print budget

period 192 step 5 
  save head
  save budget
  print budget

period 193 step 5 
  save head
  save budget
  print budget

period 194 step 5 
  save head
  save budget
  print budget

period 195 step 5 
  save head
  save budget
  print budget

period 196 step 5 
  save head
  save budget
  print budget

period 197 step 5 
  save head
  save budget
  print budget

period 198 step 5 
  save head
  save budget
  print budget

period 199 step 5 
  save head
  save budget
  print budget

period 200 step 5 
  save head
  save budget
  print budget

period 201 step 5 
  save head
  save budget
  print budget

period 202 step 5 
  save head
  save budget
  print budget

period 203 step 5 
  save head
  save budget
  print budget

period 204 step 5 
  save head
  save budget
  print budget

period 205 step 5 
  save head
  save budget
  print budget

period 206 step 5 
  save head
  save budget
  print budget

period 207 step 5 
  save head
  save budget
  print budget

period 208 step 5 
  save head
  save budget
  print budget

period 209 step 5 
  save head
  save budget
  print budget

period 210 step 5 
  save head
  save budget
  print budget

period 211 step 5 
  save head
  save budget
  print budget

period 212 step 5 
  save head
  save budget
  print budget

period 213 step 5 
  save head
  save budget
  print budget

period 214 step 5 
  save head
  save budget
  print budget

period 215 step 5 
  save head
  save budget
  print budget

period 216 step 5 
  save head
  save budget
  print budget

period 217 step 5 
  save head
  save budget
  print budget

period 218 step 5 
  save head
  save budget
  print budget

period 219 step 5 
  save head
  save budget
  print budget

period 220 step 5 
  save head
  save budget
  print budget

period 221 step 5 
  save head
  save budget
  print budget

period 222 step 5 
  save head
  save budget
  print budget

period 223 step 5 
  save head
  save budget
  print budget

period 224 step 5 
  save head
  save budget
  print budget

period 225 step 5 
  save head
  save budget
  print budget

period 226 step 5 
  save head
  save budget
  print budget

period 227 step 5 
  save head
  save budget
  print budget

period 228 step 5 
  save head
  save budget
  print budget

period 229 step 5 
  save head
  save budget
  print budget

period 230 step 5 
  save head
  save budget
  print budget

period 231 step 5 
  save head
  save budget
  print budget

period 232 step 5 
  save head
  save budget
  print budget

period 233 step 5 
  save head
  save budget
  print budget

period 234 step 5 
  save head
  save budget
  print budget

period 235 step 5 
  save head
  save budget
  print budget

period 236 step 5 
  save head
  save budget
  print budget

period 237 step 5 
  save head
  save budget
  print budget

period 238 step 5 
  save head
  save budget
  print budget

period 239 step 5 
  save head
  save budget
  print budget

period 240 step 5 
  save head
  save budget
  print budget

period 241 step 5 
  save head
  save budget
  print budget

period 242 step 5 
  save head
  save budget
  print budget

period 243 step 5 
  save head
  save budget
  print budget

period 244 step 5 
  save head
  save budget
  print budget

period 245 step 5 
  save head
  save budget
  print budget

period 246 step 5 
  save head
  save budget
  print budget

period 247 step 5 
  save head
  save budget
  print budget

period 248 step 5 
  save head
  save budget
  print budget

period 249 step 5 
  save head
  save budget
  print budget

period 250 step 5 
  save head
  save budget
  print budget

period 251 step 5 
  save head
  save budget
  print budget

period 252 step 5 
  save head
  save budget
  print budget

period 253 step 5 
  save head
  save budget
  print budget

period 254 step 5 
  save head
  save budget
  print budget

period 255 step 5 
  save head
  save budget
  print budget

period 256 step 5 
  save head
  save budget
  print budget

period 257 step 5 
  save head
  save budget
  print budget

period 258 step 5 
  save head
  save budget
  print budget

period 259 step 5 
  save head
  save budget
  print budget

period 260 step 5 
  save head
  save budget
  print budget

period 261 step 5 
  save head
  save budget
  print budget

period 262 step 5 
  save head
  save budget
  print budget

period 263 step 5 
  save head
  save budget
  print budget

period 264 step 5 
  save head
  save budget
  print budget

period 265 step 5 
  save head
  save budget
  print budget

period 266 step 5 
  save head
  save budget
  print budget

period 267 step 5 
  save head
  save budget
  print budget

period 268 step 5 
  save head
  save budget
  print budget

period 269 step 5 
  save head
  save budget
  print budget

period 270 step 5 
  save head
  save budget
  print budget

period 271 step 5 
  save head
  save budget
  print budget

period 272 step 5 
  save head
  save budget
  print budget

period 273 step 5 
  save head
  save budget
  print budget

period 274 step 5 
  save head
  save budget
  print budget

period 275 step 5 
  save head
  save budget
  print budget

period 276 step 5 
  save head
  save budget
  print budget

period 277 step 5 
  save head
  save budget
  print budget

period 278 step 5 
  save head
  save budget
  print budget

period 279 step 5 
  save head
  save budget
  print budget

period 280 step 5 
  save head
  save budget
  print budget

period 281 step 5 
  save head
  save budget
  print budget

period 282 step 5 
  save head
  save budget
  print budget

period 283 step 5 
  save head
  save budget
  print budget

period 284 step 5 
  save head
  save budget
  print budget

period 285 step 5 
  save head
  save budget
  print budget

period 286 step 5 
  save head
  save budget
  print budget

period 287 step 5 
  save head
  save budget
  print budget

period 288 step 5 
  save head
  save budget
  print budget

period 289 step 5 
  save head
  save budget
  print budget

period 290 step 5 
  save head
  save budget
  print budget

period 291 step 5 
  save head
  save budget
  print budget

period 292 step 5 
  save head
  save budget
  print budget

period 293 step 5 
  save head
  save budget
  print budget

period 294 step 5 
  save head
  save budget
  print budget

period 295 step 5 
  save head
  save budget
  print budget

period 296 step 5 
  save head
  save budget
  print budget

period 297 step 5 
  save head
  save budget
  print budget

period 298 step 5 
  save head
  save budget
  print budget

period 299 step 5 
  save head
  save budget
  print budget

period 300 step 5 
  save head
  save budget
  print budget

period 301 step 5 
  save head
  save budget
  print budget

period 302 step 5 
  save head
  save budget
  print budget

period 303 step 5 
  save head
  save budget
  print budget

period 304 step 5 
  save head
  save budget
  print budget

period 305 step 5 
  save head
  save budget
  print budget

period 306 step 5 
  save head
  save budget
  print budget

period 307 step 5 
  save head
  save budget
  print budget

period 308 step 5 
  save head
  save budget
  print budget

period 309 step 5 
  save head
  save budget
  print budget

period 310 step 5 
  save head
  save budget
  print budget

period 311 step 5 
  save head
  save budget
  print budget

period 312 step 5 
  save head
  save budget
  print budget

period 313 step 5 
  save head
  save budget
  print budget

period 314 step 5 
  save head
  save budget
  print budget

period 315 step 5 
  save head
  save budget
  print budget

period 316 step 5 
  save head
  save budget
  print budget

period 317 step 5 
  save head
  save budget
  print budget

period 318 step 5 
  save head
  save budget
  print budget

period 319 step 5 
  save head
  save budget
  print budget

period 320 step 5 
  save head
  save budget
  print budget

period 321 step 5 
  save head
  save budget
  print budget

period 322 step 5 
  save head
  save budget
  print budget

period 323 step 5 
  save head
  save budget
  print budget

period 324 step 5 
  save head
  save budget
  print budget

period 325 step 5 
  save head
  save budget
  print budget

period 326 step 5 
  save head
  save budget
  print budget

period 327 step 5 
  save head
  save budget
  print budget

period 328 step 5 
  save head
  save budget
  print budget

period 329 step 5 
  save head
  save budget
  print budget

period 330 step 5 
  save head
  save budget
  print budget

period 331 step 5 
  save head
  save budget
  print budget

period 332 step 5 
  save head
  save budget
  print budget

period 333 step 5 
  save head
  save budget
  print budget

period 334 step 5 
  save head
  save budget
  print budget

period 335 step 5 
  save head
  save budget
  print budget

period 336 step 5 
  save head
  save budget
  print budget

period 337 step 5 
  save head
  save budget
  print budget

period 338 step 5 
  save head
  save budget
  print budget

period 339 step 5 
  save head
  save budget
  print budget

period 340 step 5 
  save head
  save budget
  print budget

period 341 step 5 
  save head
  save budget
  print budget

period 342 step 5 
  save head
  save budget
  print budget

period 343 step 5 
  save head
  save budget
  print budget

period 344 step 5 
  save head
  save budget
  print budget

period 345 step 5 
  save head
  save budget
  print budget

period 346 step 5 
  save head
  save budget
  print budget

period 347 step 5 
  save head
  save budget
  print budget

period 348 step 5 
  save head
  save budget
  print budget

period 349 step 5 
  save head
  save budget
  print budget

period 350 step 5 
  save head
  save budget
  print budget

period 351 step 5 
  save head
  save budget
  print budget

period 352 step 5 
  save head
  save budget
  print budget

period 353 step 5 
  save head
  save budget
  print budget

period 354 step 5 
  save head
  save budget
  print budget

period 355 step 5 
  save head
  save budget
  print budget

period 356 step 5 
  save head
  save budget
  print budget

period 357 step 5 
  save head
  save budget
  print budget

period 358 step 5 
  save head
  save budget
  print budget

period 359 step 5 
  save head
  save budget
  print budget

period 360 step 5 
  save head
  save budget
  print budget

period 361 step 5 
  save head
  save budget
  print budget

period 362 step 5 
  save head
  save budget
  print budget

period 363 step 5 
  save head
  save budget
  print budget

period 364 step 5 
  save head
  save budget
  print budget

period 365 step 5 
  save head
  save budget
  print budget

period 366 step 5 
  save head
  save budget
  print budget

period 367 step 5 
  save head
  save budget
  print budget

period 368 step 5 
  save head
  save budget
  print budget

period 369 step 5 
  save head
  save budget
  print budget

period 370 step 5 
  save head
  save budget
  print budget

period 371 step 5 
  save head
  save budget
  print budget

period 372 step 5 
  save head
  save budget
  print budget

period 373 step 5 
  save head
  save budget
  print budget

period 374 step 5 
  save head
  save budget
  print budget

period 375 step 5 
  save head
  save budget
  print budget

period 376 step 5 
  save head
  save budget
  print budget

period 377 step 5 
  save head
  save budget
  print budget

period 378 step 5 
  save head
  save budget
  print budget

period 379 step 5 
  save head
  save budget
  print budget

period 380 step 5 
  save head
  save budget
  print budget

period 381 step 5 
  save head
  save budget
  print budget

period 382 step 5 
  save head
  save budget
  print budget

period 383 step 5 
  save head
  save budget
  print budget

period 384 step 5 
  save head
  save budget
  print budget

period 385 step 5 
  save head
  save budget
  print budget

period 386 step 5 
  save head
  save budget
  print budget

period 387 step 5 
  save head
  save budget
  print budget

period 388 step 5 
  save head
  save budget
  print budget

period 389 step 5 
  save head
  save budget
  print budget

period 390 step 5 
  save head
  save budget
  print budget

period 391 step 5 
  save head
  save budget
  print budget

period 392 step 5 
  save head
  save budget
  print budget

period 393 step 5 
  save head
  save budget
  print budget

period 394 step 5 
  save head
  save budget
  print budget

period 395 step 5 
  save head
  save budget
  print budget

period 396 step 5 
  save head
  save budget
  print budget

period 397 step 5 
  save head
  save budget
  print budget

period 398 step 5 
  save head
  save budget
  print budget

period 399 step 5 
  save head
  save budget
  print budget

period 400 step 5 
  save head
  save budget
  print budget

period 401 step 5 
  save head
  save budget
  print budget

period 402 step 5 
  save head
  save budget
  print budget

period 403 step 5 
  save head
  save budget
  print budget

period 404 step 5 
  save head
  save budget
  print budget

period 405 step 5 
  save head
  save budget
  print budget

period 406 step 5 
  save head
  save budget
  print budget

period 407 step 5 
  save head
  save budget
  print budget

period 408 step 5 
  save head
  save budget
  print budget

period 409 step 5 
  save head
  save budget
  print budget

period 410 step 5 
  save head
  save budget
  print budget

period 411 step 5 
  save head
  save budget
  print budget

period 412 step 5 
  save head
  save budget
  print budget

period 413 step 5 
  save head
  save budget
  print budget

period 414 step 5 
  save head
  save budget
  print budget

period 415 step 5 
  save head
  save budget
  print budget

period 416 step 5 
  save head
  save budget
  print budget

period 417 step 5 
  save head
  save budget
  print budget

period 418 step 5 
  save head
  save budget
  print budget

period 419 step 5 
  save head
  save budget
  print budget

period 420 step 5 
  save head
  save budget
  print budget

period 421 step 5 
  save head
  save budget
  print budget

period 422 step 5 
  save head
  save budget
  print budget

period 423 step 5 
  save head
  save budget
  print budget

period 424 step 5 
  save head
  save budget
  print budget

period 425 step 5 
  save head
  save budget
  print budget

period 426 step 5 
  save head
  save budget
  print budget

period 427 step 5 
  save head
  save budget
  print budget

period 428 step 5 
  save head
  save budget
  print budget

period 429 step 5 
  save head
  save budget
  print budget

period 430 step 5 
  save head
  save budget
  print budget

period 431 step 5 
  save head
  save budget
  print budget

period 432 step 5 
  save head
  save budget
  print budget

period 433 step 5 
  save head
  save budget
  print budget

period 434 step 5 
  save head
  save budget
  print budget

period 435 step 5 
  save head
  save budget
  print budget

period 436 step 5 
  save head
  save budget
  print budget

period 437 step 5 
  save head
  save budget
  print budget

period 438 step 5 
  save head
  save budget
  print budget

period 439 step 5 
  save head
  save budget
  print budget

period 440 step 5 
  save head
  save budget
  print budget

period 441 step 5 
  save head
  save budget
  print budget

period 442 step 5 
  save head
  save budget
  print budget

period 443 step 5 
  save head
  save budget
  print budget

period 444 step 5 
  save head
  save budget
  print budget

period 445 step 5 
  save head
  save budget
  print budget

period 446 step 5 
  save head
  save budget
  print budget

period 447 step 5 
  save head
  save budget
  print budget

period 448 step 5 
  save head
  save budget
  print budget

period 449 step 5 
  save head
  save budget
  print budget

period 450 step 5 
  save head
  save budget
  print budget

period 451 step 5 
  save head
  save budget
  print budget

period 452 step 5 
  save head
  save budget
  print budget

period 453 step 5 
  save head
  save budget
  print budget

period 454 step 5 
  save head
  save budget
  print budget

period 455 step 5 
  save head
  save budget
  print budget

period 456 step 5 
  save head
  save budget
  print budget

period 457 step 5 
  save head
  save budget
  print budget

period 458 step 5 
  save head
  save budget
  print budget

period 459 step 5 
  save head
  save budget
  print budget

period 460 step 5 
  save head
  save budget
  print budget

period 461 step 5 
  save head
  save budget
  print budget

period 462 step 5 
  save head
  save budget
  print budget

period 463 step 5 
  save head
  save budget
  print budget

period 464 step 5 
  save head
  save budget
  print budget

period 465 step 5 
  save head
  save budget
  print budget

period 466 step 5 
  save head
  save budget
  print budget

period 467 step 5 
  save head
  save budget
  print budget

period 468 step 5 
  save head
  save budget
  print budget

period 469 step 5 
  save head
  save budget
  print budget

period 470 step 5 
  save head
  save budget
  print budget

period 471 step 5 
  save head
  save budget
  print budget

period 472 step 5 
  save head
  save budget
  print budget

period 473 step 5 
  save head
  save budget
  print budget

period 474 step 5 
  save head
  save budget
  print budget

period 475 step 5 
  save head
  save budget
  print budget

period 476 step 5 
  save head
  save budget
  print budget

period 477 step 5 
  save head
  save budget
  print budget

period 478 step 5 
  save head
  save budget
  print budget

period 479 step 5 
  save head
  save budget
  print budget

period 480 step 5 
  save head
  save budget
  print budget

period 481 step 5 
  save head
  save budget
  print budget

period 482 step 5 
  save head
  save budget
  print budget

period 483 step 5 
  save head
  save budget
  print budget

period 484 step 5 
  save head
  save budget
  print budget

period 485 step 5 
  save head
  save budget
  print budget

period 486 step 5 
  save head
  save budget
  print budget

period 487 step 5 
  save head
  save budget
  print budget

period 488 step 5 
  save head
  save budget
  print budget

period 489 step 5 
  save head
  save budget
  print budget

period 490 step 5 
  save head
  save budget
  print budget

period 491 step 5 
  save head
  save budget
  print budget
