# WEL package for MODFLOW-2005 generated by Flopy 3.3.5
      4584        50  noprint
      3383         0 # stress period 1
         open/close .\WEL_0000.dat
      3383         0 # stress period 2
         open/close .\WEL_0001.dat
      3642         0 # stress period 3
         open/close .\WEL_0002.dat
      3654         0 # stress period 4
         open/close .\WEL_0003.dat
      3729         0 # stress period 5
         open/close .\WEL_0004.dat
      3559         0 # stress period 6
         open/close .\WEL_0005.dat
      3557         0 # stress period 7
         open/close .\WEL_0006.dat
      3560         0 # stress period 8
         open/close .\WEL_0007.dat
      3562         0 # stress period 9
         open/close .\WEL_0008.dat
      3525         0 # stress period 10
         open/close .\WEL_0009.dat
      3402         0 # stress period 11
         open/close .\WEL_0010.dat
      3383         0 # stress period 12
         open/close .\WEL_0011.dat
      3383         0 # stress period 13
         open/close .\WEL_0012.dat
      3383         0 # stress period 14
         open/close .\WEL_0013.dat
      3665         0 # stress period 15
         open/close .\WEL_0014.dat
      3695         0 # stress period 16
         open/close .\WEL_0015.dat
      3795         0 # stress period 17
         open/close .\WEL_0016.dat
      3643         0 # stress period 18
         open/close .\WEL_0017.dat
      3642         0 # stress period 19
         open/close .\WEL_0018.dat
      3646         0 # stress period 20
         open/close .\WEL_0019.dat
      3649         0 # stress period 21
         open/close .\WEL_0020.dat
      3549         0 # stress period 22
         open/close .\WEL_0021.dat
      3385         0 # stress period 23
         open/close .\WEL_0022.dat
      3383         0 # stress period 24
         open/close .\WEL_0023.dat
      3383         0 # stress period 25
         open/close .\WEL_0024.dat
      3383         0 # stress period 26
         open/close .\WEL_0025.dat
      3795         0 # stress period 27
         open/close .\WEL_0026.dat
      3726         0 # stress period 28
         open/close .\WEL_0027.dat
      3864         0 # stress period 29
         open/close .\WEL_0028.dat
      3719         0 # stress period 30
         open/close .\WEL_0029.dat
      3722         0 # stress period 31
         open/close .\WEL_0030.dat
      3726         0 # stress period 32
         open/close .\WEL_0031.dat
      3732         0 # stress period 33
         open/close .\WEL_0032.dat
      3635         0 # stress period 34
         open/close .\WEL_0033.dat
      3596         0 # stress period 35
         open/close .\WEL_0034.dat
      3383         0 # stress period 36
         open/close .\WEL_0035.dat
      3383         0 # stress period 37
         open/close .\WEL_0036.dat
      3383         0 # stress period 38
         open/close .\WEL_0037.dat
      3701         0 # stress period 39
         open/close .\WEL_0038.dat
      3694         0 # stress period 40
         open/close .\WEL_0039.dat
      3839         0 # stress period 41
         open/close .\WEL_0040.dat
      3791         0 # stress period 42
         open/close .\WEL_0041.dat
      3799         0 # stress period 43
         open/close .\WEL_0042.dat
      3804         0 # stress period 44
         open/close .\WEL_0043.dat
      3790         0 # stress period 45
         open/close .\WEL_0044.dat
      3668         0 # stress period 46
         open/close .\WEL_0045.dat
      3572         0 # stress period 47
         open/close .\WEL_0046.dat
      3383         0 # stress period 48
         open/close .\WEL_0047.dat
      3383         0 # stress period 49
         open/close .\WEL_0048.dat
      3383         0 # stress period 50
         open/close .\WEL_0049.dat
      3634         0 # stress period 51
         open/close .\WEL_0050.dat
      3833         0 # stress period 52
         open/close .\WEL_0051.dat
      3995         0 # stress period 53
         open/close .\WEL_0052.dat
      3865         0 # stress period 54
         open/close .\WEL_0053.dat
      3872         0 # stress period 55
         open/close .\WEL_0054.dat
      3882         0 # stress period 56
         open/close .\WEL_0055.dat
      3884         0 # stress period 57
         open/close .\WEL_0056.dat
      3706         0 # stress period 58
         open/close .\WEL_0057.dat
      3390         0 # stress period 59
         open/close .\WEL_0058.dat
      3383         0 # stress period 60
         open/close .\WEL_0059.dat
      3383         0 # stress period 61
         open/close .\WEL_0060.dat
      3383         0 # stress period 62
         open/close .\WEL_0061.dat
      3922         0 # stress period 63
         open/close .\WEL_0062.dat
      3862         0 # stress period 64
         open/close .\WEL_0063.dat
      4011         0 # stress period 65
         open/close .\WEL_0064.dat
      3905         0 # stress period 66
         open/close .\WEL_0065.dat
      3911         0 # stress period 67
         open/close .\WEL_0066.dat
      3912         0 # stress period 68
         open/close .\WEL_0067.dat
      3905         0 # stress period 69
         open/close .\WEL_0068.dat
      3784         0 # stress period 70
         open/close .\WEL_0069.dat
      3793         0 # stress period 71
         open/close .\WEL_0070.dat
      3402         0 # stress period 72
         open/close .\WEL_0071.dat
      3383         0 # stress period 73
         open/close .\WEL_0072.dat
      3383         0 # stress period 74
         open/close .\WEL_0073.dat
      3820         0 # stress period 75
         open/close .\WEL_0074.dat
      3815         0 # stress period 76
         open/close .\WEL_0075.dat
      4087         0 # stress period 77
         open/close .\WEL_0076.dat
      3988         0 # stress period 78
         open/close .\WEL_0077.dat
      3995         0 # stress period 79
         open/close .\WEL_0078.dat
      4000         0 # stress period 80
         open/close .\WEL_0079.dat
      3987         0 # stress period 81
         open/close .\WEL_0080.dat
      3464         0 # stress period 82
         open/close .\WEL_0081.dat
      3406         0 # stress period 83
         open/close .\WEL_0082.dat
      3383         0 # stress period 84
         open/close .\WEL_0083.dat
      3383         0 # stress period 85
         open/close .\WEL_0084.dat
      3383         0 # stress period 86
         open/close .\WEL_0085.dat
      3814         0 # stress period 87
         open/close .\WEL_0086.dat
      3966         0 # stress period 88
         open/close .\WEL_0087.dat
      4103         0 # stress period 89
         open/close .\WEL_0088.dat
      3999         0 # stress period 90
         open/close .\WEL_0089.dat
      4017         0 # stress period 91
         open/close .\WEL_0090.dat
      4021         0 # stress period 92
         open/close .\WEL_0091.dat
      3977         0 # stress period 93
         open/close .\WEL_0092.dat
      3633         0 # stress period 94
         open/close .\WEL_0093.dat
      3400         0 # stress period 95
         open/close .\WEL_0094.dat
      3386         0 # stress period 96
         open/close .\WEL_0095.dat
      3386         0 # stress period 97
         open/close .\WEL_0096.dat
      3386         0 # stress period 98
         open/close .\WEL_0097.dat
      3836         0 # stress period 99
         open/close .\WEL_0098.dat
      4017         0 # stress period 100
         open/close .\WEL_0099.dat
      4114         0 # stress period 101
         open/close .\WEL_0100.dat
      4033         0 # stress period 102
         open/close .\WEL_0101.dat
      4030         0 # stress period 103
         open/close .\WEL_0102.dat
      4035         0 # stress period 104
         open/close .\WEL_0103.dat
      4035         0 # stress period 105
         open/close .\WEL_0104.dat
      3888         0 # stress period 106
         open/close .\WEL_0105.dat
      3816         0 # stress period 107
         open/close .\WEL_0106.dat
      3386         0 # stress period 108
         open/close .\WEL_0107.dat
      3386         0 # stress period 109
         open/close .\WEL_0108.dat
      3386         0 # stress period 110
         open/close .\WEL_0109.dat
      3824         0 # stress period 111
         open/close .\WEL_0110.dat
      3865         0 # stress period 112
         open/close .\WEL_0111.dat
      4142         0 # stress period 113
         open/close .\WEL_0112.dat
      4035         0 # stress period 114
         open/close .\WEL_0113.dat
      4093         0 # stress period 115
         open/close .\WEL_0114.dat
      4095         0 # stress period 116
         open/close .\WEL_0115.dat
      4096         0 # stress period 117
         open/close .\WEL_0116.dat
      3901         0 # stress period 118
         open/close .\WEL_0117.dat
      3773         0 # stress period 119
         open/close .\WEL_0118.dat
      3394         0 # stress period 120
         open/close .\WEL_0119.dat
      3392         0 # stress period 121
         open/close .\WEL_0120.dat
      3392         0 # stress period 122
         open/close .\WEL_0121.dat
      3827         0 # stress period 123
         open/close .\WEL_0122.dat
      3860         0 # stress period 124
         open/close .\WEL_0123.dat
      4149         0 # stress period 125
         open/close .\WEL_0124.dat
      4099         0 # stress period 126
         open/close .\WEL_0125.dat
      4118         0 # stress period 127
         open/close .\WEL_0126.dat
      4125         0 # stress period 128
         open/close .\WEL_0127.dat
      3984         0 # stress period 129
         open/close .\WEL_0128.dat
      3837         0 # stress period 130
         open/close .\WEL_0129.dat
      3397         0 # stress period 131
         open/close .\WEL_0130.dat
      3397         0 # stress period 132
         open/close .\WEL_0131.dat
      3396         0 # stress period 133
         open/close .\WEL_0132.dat
      3395         0 # stress period 134
         open/close .\WEL_0133.dat
      4120         0 # stress period 135
         open/close .\WEL_0134.dat
      3922         0 # stress period 136
         open/close .\WEL_0135.dat
      4037         0 # stress period 137
         open/close .\WEL_0136.dat
      4126         0 # stress period 138
         open/close .\WEL_0137.dat
      4144         0 # stress period 139
         open/close .\WEL_0138.dat
      4163         0 # stress period 140
         open/close .\WEL_0139.dat
      4152         0 # stress period 141
         open/close .\WEL_0140.dat
      3951         0 # stress period 142
         open/close .\WEL_0141.dat
      3675         0 # stress period 143
         open/close .\WEL_0142.dat
      3398         0 # stress period 144
         open/close .\WEL_0143.dat
      3398         0 # stress period 145
         open/close .\WEL_0144.dat
      3394         0 # stress period 146
         open/close .\WEL_0145.dat
      3705         0 # stress period 147
         open/close .\WEL_0146.dat
      3719         0 # stress period 148
         open/close .\WEL_0147.dat
      3984         0 # stress period 149
         open/close .\WEL_0148.dat
      3616         0 # stress period 150
         open/close .\WEL_0149.dat
      4151         0 # stress period 151
         open/close .\WEL_0150.dat
      4157         0 # stress period 152
         open/close .\WEL_0151.dat
      3734         0 # stress period 153
         open/close .\WEL_0152.dat
      3576         0 # stress period 154
         open/close .\WEL_0153.dat
      3396         0 # stress period 155
         open/close .\WEL_0154.dat
      3395         0 # stress period 156
         open/close .\WEL_0155.dat
      3396         0 # stress period 157
         open/close .\WEL_0156.dat
      3395         0 # stress period 158
         open/close .\WEL_0157.dat
      3804         0 # stress period 159
         open/close .\WEL_0158.dat
      4043         0 # stress period 160
         open/close .\WEL_0159.dat
      4220         0 # stress period 161
         open/close .\WEL_0160.dat
      4126         0 # stress period 162
         open/close .\WEL_0161.dat
      4165         0 # stress period 163
         open/close .\WEL_0162.dat
      4195         0 # stress period 164
         open/close .\WEL_0163.dat
      4207         0 # stress period 165
         open/close .\WEL_0164.dat
      3986         0 # stress period 166
         open/close .\WEL_0165.dat
      3868         0 # stress period 167
         open/close .\WEL_0166.dat
      3440         0 # stress period 168
         open/close .\WEL_0167.dat
      3402         0 # stress period 169
         open/close .\WEL_0168.dat
      3399         0 # stress period 170
         open/close .\WEL_0169.dat
      4227         0 # stress period 171
         open/close .\WEL_0170.dat
      3958         0 # stress period 172
         open/close .\WEL_0171.dat
      4250         0 # stress period 173
         open/close .\WEL_0172.dat
      4221         0 # stress period 174
         open/close .\WEL_0173.dat
      4227         0 # stress period 175
         open/close .\WEL_0174.dat
      4229         0 # stress period 176
         open/close .\WEL_0175.dat
      4222         0 # stress period 177
         open/close .\WEL_0176.dat
      3969         0 # stress period 178
         open/close .\WEL_0177.dat
      3400         0 # stress period 179
         open/close .\WEL_0178.dat
      3399         0 # stress period 180
         open/close .\WEL_0179.dat
      3400         0 # stress period 181
         open/close .\WEL_0180.dat
      3400         0 # stress period 182
         open/close .\WEL_0181.dat
      4170         0 # stress period 183
         open/close .\WEL_0182.dat
      3933         0 # stress period 184
         open/close .\WEL_0183.dat
      4174         0 # stress period 185
         open/close .\WEL_0184.dat
      4225         0 # stress period 186
         open/close .\WEL_0185.dat
      4257         0 # stress period 187
         open/close .\WEL_0186.dat
      4168         0 # stress period 188
         open/close .\WEL_0187.dat
      4184         0 # stress period 189
         open/close .\WEL_0188.dat
      3866         0 # stress period 190
         open/close .\WEL_0189.dat
      3407         0 # stress period 191
         open/close .\WEL_0190.dat
      3407         0 # stress period 192
         open/close .\WEL_0191.dat
      3407         0 # stress period 193
         open/close .\WEL_0192.dat
      3408         0 # stress period 194
         open/close .\WEL_0193.dat
      4268         0 # stress period 195
         open/close .\WEL_0194.dat
      4161         0 # stress period 196
         open/close .\WEL_0195.dat
      4315         0 # stress period 197
         open/close .\WEL_0196.dat
      4240         0 # stress period 198
         open/close .\WEL_0197.dat
      4237         0 # stress period 199
         open/close .\WEL_0198.dat
      4252         0 # stress period 200
         open/close .\WEL_0199.dat
      4021         0 # stress period 201
         open/close .\WEL_0200.dat
      3569         0 # stress period 202
         open/close .\WEL_0201.dat
      3644         0 # stress period 203
         open/close .\WEL_0202.dat
      3405         0 # stress period 204
         open/close .\WEL_0203.dat
      3407         0 # stress period 205
         open/close .\WEL_0204.dat
      3408         0 # stress period 206
         open/close .\WEL_0205.dat
      3894         0 # stress period 207
         open/close .\WEL_0206.dat
      3924         0 # stress period 208
         open/close .\WEL_0207.dat
      4333         0 # stress period 209
         open/close .\WEL_0208.dat
      4294         0 # stress period 210
         open/close .\WEL_0209.dat
      4294         0 # stress period 211
         open/close .\WEL_0210.dat
      4299         0 # stress period 212
         open/close .\WEL_0211.dat
      4298         0 # stress period 213
         open/close .\WEL_0212.dat
      4057         0 # stress period 214
         open/close .\WEL_0213.dat
      4017         0 # stress period 215
         open/close .\WEL_0214.dat
      3771         0 # stress period 216
         open/close .\WEL_0215.dat
      3406         0 # stress period 217
         open/close .\WEL_0216.dat
      3406         0 # stress period 218
         open/close .\WEL_0217.dat
      4014         0 # stress period 219
         open/close .\WEL_0218.dat
      4381         0 # stress period 220
         open/close .\WEL_0219.dat
      4314         0 # stress period 221
         open/close .\WEL_0220.dat
      4266         0 # stress period 222
         open/close .\WEL_0221.dat
      4305         0 # stress period 223
         open/close .\WEL_0222.dat
      4266         0 # stress period 224
         open/close .\WEL_0223.dat
      4290         0 # stress period 225
         open/close .\WEL_0224.dat
      3954         0 # stress period 226
         open/close .\WEL_0225.dat
      3425         0 # stress period 227
         open/close .\WEL_0226.dat
      3420         0 # stress period 228
         open/close .\WEL_0227.dat
      3407         0 # stress period 229
         open/close .\WEL_0228.dat
      3409         0 # stress period 230
         open/close .\WEL_0229.dat
      4267         0 # stress period 231
         open/close .\WEL_0230.dat
      4112         0 # stress period 232
         open/close .\WEL_0231.dat
      4322         0 # stress period 233
         open/close .\WEL_0232.dat
      4275         0 # stress period 234
         open/close .\WEL_0233.dat
      4319         0 # stress period 235
         open/close .\WEL_0234.dat
      4324         0 # stress period 236
         open/close .\WEL_0235.dat
      4326         0 # stress period 237
         open/close .\WEL_0236.dat
      4025         0 # stress period 238
         open/close .\WEL_0237.dat
      3424         0 # stress period 239
         open/close .\WEL_0238.dat
      3407         0 # stress period 240
         open/close .\WEL_0239.dat
      3408         0 # stress period 241
         open/close .\WEL_0240.dat
      3406         0 # stress period 242
         open/close .\WEL_0241.dat
      4085         0 # stress period 243
         open/close .\WEL_0242.dat
      4167         0 # stress period 244
         open/close .\WEL_0243.dat
      4300         0 # stress period 245
         open/close .\WEL_0244.dat
      4291         0 # stress period 246
         open/close .\WEL_0245.dat
      4336         0 # stress period 247
         open/close .\WEL_0246.dat
      4336         0 # stress period 248
         open/close .\WEL_0247.dat
      4320         0 # stress period 249
         open/close .\WEL_0248.dat
      4080         0 # stress period 250
         open/close .\WEL_0249.dat
      3764         0 # stress period 251
         open/close .\WEL_0250.dat
      3434         0 # stress period 252
         open/close .\WEL_0251.dat
      3405         0 # stress period 253
         open/close .\WEL_0252.dat
      3409         0 # stress period 254
         open/close .\WEL_0253.dat
      4058         0 # stress period 255
         open/close .\WEL_0254.dat
      4071         0 # stress period 256
         open/close .\WEL_0255.dat
      4145         0 # stress period 257
         open/close .\WEL_0256.dat
      4249         0 # stress period 258
         open/close .\WEL_0257.dat
      4302         0 # stress period 259
         open/close .\WEL_0258.dat
      4293         0 # stress period 260
         open/close .\WEL_0259.dat
      4289         0 # stress period 261
         open/close .\WEL_0260.dat
      4052         0 # stress period 262
         open/close .\WEL_0261.dat
      3582         0 # stress period 263
         open/close .\WEL_0262.dat
      3463         0 # stress period 264
         open/close .\WEL_0263.dat
      3406         0 # stress period 265
         open/close .\WEL_0264.dat
      3408         0 # stress period 266
         open/close .\WEL_0265.dat
      4337         0 # stress period 267
         open/close .\WEL_0266.dat
      4091         0 # stress period 268
         open/close .\WEL_0267.dat
      4362         0 # stress period 269
         open/close .\WEL_0268.dat
      4315         0 # stress period 270
         open/close .\WEL_0269.dat
      4362         0 # stress period 271
         open/close .\WEL_0270.dat
      4368         0 # stress period 272
         open/close .\WEL_0271.dat
      4357         0 # stress period 273
         open/close .\WEL_0272.dat
      4027         0 # stress period 274
         open/close .\WEL_0273.dat
      3679         0 # stress period 275
         open/close .\WEL_0274.dat
      3408         0 # stress period 276
         open/close .\WEL_0275.dat
      3409         0 # stress period 277
         open/close .\WEL_0276.dat
      3409         0 # stress period 278
         open/close .\WEL_0277.dat
      3824         0 # stress period 279
         open/close .\WEL_0278.dat
      4081         0 # stress period 280
         open/close .\WEL_0279.dat
      4383         0 # stress period 281
         open/close .\WEL_0280.dat
      4301         0 # stress period 282
         open/close .\WEL_0281.dat
      4356         0 # stress period 283
         open/close .\WEL_0282.dat
      4280         0 # stress period 284
         open/close .\WEL_0283.dat
      4303         0 # stress period 285
         open/close .\WEL_0284.dat
      4048         0 # stress period 286
         open/close .\WEL_0285.dat
      3873         0 # stress period 287
         open/close .\WEL_0286.dat
      3411         0 # stress period 288
         open/close .\WEL_0287.dat
      3413         0 # stress period 289
         open/close .\WEL_0288.dat
      3411         0 # stress period 290
         open/close .\WEL_0289.dat
      4372         0 # stress period 291
         open/close .\WEL_0290.dat
      4058         0 # stress period 292
         open/close .\WEL_0291.dat
      4395         0 # stress period 293
         open/close .\WEL_0292.dat
      4323         0 # stress period 294
         open/close .\WEL_0293.dat
      4382         0 # stress period 295
         open/close .\WEL_0294.dat
      4415         0 # stress period 296
         open/close .\WEL_0295.dat
      4416         0 # stress period 297
         open/close .\WEL_0296.dat
      3841         0 # stress period 298
         open/close .\WEL_0297.dat
      3413         0 # stress period 299
         open/close .\WEL_0298.dat
      3411         0 # stress period 300
         open/close .\WEL_0299.dat
      3407         0 # stress period 301
         open/close .\WEL_0300.dat
      3403         0 # stress period 302
         open/close .\WEL_0301.dat
      4328         0 # stress period 303
         open/close .\WEL_0302.dat
      3943         0 # stress period 304
         open/close .\WEL_0303.dat
      4405         0 # stress period 305
         open/close .\WEL_0304.dat
      4367         0 # stress period 306
         open/close .\WEL_0305.dat
      4427         0 # stress period 307
         open/close .\WEL_0306.dat
      4429         0 # stress period 308
         open/close .\WEL_0307.dat
      4432         0 # stress period 309
         open/close .\WEL_0308.dat
      3994         0 # stress period 310
         open/close .\WEL_0309.dat
      3416         0 # stress period 311
         open/close .\WEL_0310.dat
      3411         0 # stress period 312
         open/close .\WEL_0311.dat
      3414         0 # stress period 313
         open/close .\WEL_0312.dat
      3417         0 # stress period 314
         open/close .\WEL_0313.dat
      4386         0 # stress period 315
         open/close .\WEL_0314.dat
      4213         0 # stress period 316
         open/close .\WEL_0315.dat
      4421         0 # stress period 317
         open/close .\WEL_0316.dat
      4377         0 # stress period 318
         open/close .\WEL_0317.dat
      4420         0 # stress period 319
         open/close .\WEL_0318.dat
      4449         0 # stress period 320
         open/close .\WEL_0319.dat
      4449         0 # stress period 321
         open/close .\WEL_0320.dat
      4165         0 # stress period 322
         open/close .\WEL_0321.dat
      4133         0 # stress period 323
         open/close .\WEL_0322.dat
      3916         0 # stress period 324
         open/close .\WEL_0323.dat
      3410         0 # stress period 325
         open/close .\WEL_0324.dat
      3411         0 # stress period 326
         open/close .\WEL_0325.dat
      4073         0 # stress period 327
         open/close .\WEL_0326.dat
      4234         0 # stress period 328
         open/close .\WEL_0327.dat
      4475         0 # stress period 329
         open/close .\WEL_0328.dat
      4413         0 # stress period 330
         open/close .\WEL_0329.dat
      4434         0 # stress period 331
         open/close .\WEL_0330.dat
      4471         0 # stress period 332
         open/close .\WEL_0331.dat
      4466         0 # stress period 333
         open/close .\WEL_0332.dat
      4181         0 # stress period 334
         open/close .\WEL_0333.dat
      3599         0 # stress period 335
         open/close .\WEL_0334.dat
      3412         0 # stress period 336
         open/close .\WEL_0335.dat
      3414         0 # stress period 337
         open/close .\WEL_0336.dat
      3413         0 # stress period 338
         open/close .\WEL_0337.dat
      4073         0 # stress period 339
         open/close .\WEL_0338.dat
      4215         0 # stress period 340
         open/close .\WEL_0339.dat
      4438         0 # stress period 341
         open/close .\WEL_0340.dat
      4417         0 # stress period 342
         open/close .\WEL_0341.dat
      4456         0 # stress period 343
         open/close .\WEL_0342.dat
      4462         0 # stress period 344
         open/close .\WEL_0343.dat
      4448         0 # stress period 345
         open/close .\WEL_0344.dat
      4180         0 # stress period 346
         open/close .\WEL_0345.dat
      4007         0 # stress period 347
         open/close .\WEL_0346.dat
      3414         0 # stress period 348
         open/close .\WEL_0347.dat
      3411         0 # stress period 349
         open/close .\WEL_0348.dat
      3409         0 # stress period 350
         open/close .\WEL_0349.dat
      4380         0 # stress period 351
         open/close .\WEL_0350.dat
      3884         0 # stress period 352
         open/close .\WEL_0351.dat
      4446         0 # stress period 353
         open/close .\WEL_0352.dat
      4423         0 # stress period 354
         open/close .\WEL_0353.dat
      4484         0 # stress period 355
         open/close .\WEL_0354.dat
      4413         0 # stress period 356
         open/close .\WEL_0355.dat
      4468         0 # stress period 357
         open/close .\WEL_0356.dat
      4182         0 # stress period 358
         open/close .\WEL_0357.dat
      4112         0 # stress period 359
         open/close .\WEL_0358.dat
      3417         0 # stress period 360
         open/close .\WEL_0359.dat
      3416         0 # stress period 361
         open/close .\WEL_0360.dat
      3416         0 # stress period 362
         open/close .\WEL_0361.dat
      3967         0 # stress period 363
         open/close .\WEL_0362.dat
      4171         0 # stress period 364
         open/close .\WEL_0363.dat
      4468         0 # stress period 365
         open/close .\WEL_0364.dat
      4472         0 # stress period 366
         open/close .\WEL_0365.dat
      4518         0 # stress period 367
         open/close .\WEL_0366.dat
      4446         0 # stress period 368
         open/close .\WEL_0367.dat
      4477         0 # stress period 369
         open/close .\WEL_0368.dat
      3859         0 # stress period 370
         open/close .\WEL_0369.dat
      3460         0 # stress period 371
         open/close .\WEL_0370.dat
      3419         0 # stress period 372
         open/close .\WEL_0371.dat
      3419         0 # stress period 373
         open/close .\WEL_0372.dat
      3421         0 # stress period 374
         open/close .\WEL_0373.dat
      4457         0 # stress period 375
         open/close .\WEL_0374.dat
      4126         0 # stress period 376
         open/close .\WEL_0375.dat
      4491         0 # stress period 377
         open/close .\WEL_0376.dat
      4482         0 # stress period 378
         open/close .\WEL_0377.dat
      4484         0 # stress period 379
         open/close .\WEL_0378.dat
      4493         0 # stress period 380
         open/close .\WEL_0379.dat
      4482         0 # stress period 381
         open/close .\WEL_0380.dat
      3508         0 # stress period 382
         open/close .\WEL_0381.dat
      3519         0 # stress period 383
         open/close .\WEL_0382.dat
      3444         0 # stress period 384
         open/close .\WEL_0383.dat
      3420         0 # stress period 385
         open/close .\WEL_0384.dat
      3422         0 # stress period 386
         open/close .\WEL_0385.dat
      4247         0 # stress period 387
         open/close .\WEL_0386.dat
      4521         0 # stress period 388
         open/close .\WEL_0387.dat
      4523         0 # stress period 389
         open/close .\WEL_0388.dat
      4545         0 # stress period 390
         open/close .\WEL_0389.dat
      4558         0 # stress period 391
         open/close .\WEL_0390.dat
      4559         0 # stress period 392
         open/close .\WEL_0391.dat
      4558         0 # stress period 393
         open/close .\WEL_0392.dat
      4247         0 # stress period 394
         open/close .\WEL_0393.dat
      4092         0 # stress period 395
         open/close .\WEL_0394.dat