# BAS6 package for MODFLOW-2005 generated by Flopy 3.3.5
FREE STOPERROR 9876.54296875
OPEN/CLOSE            .\ibound_layer_1.ref               1     (FREE) -1 ibound_layer_0                
OPEN/CLOSE            .\ibound_layer_2.ref               1     (FREE) -1 ibound_layer_1                
   99999.0
OPEN/CLOSE              .\strt_layer_1.ref               1     (FREE) -1 strt_layer_0                  
OPEN/CLOSE              .\strt_layer_2.ref               1     (FREE) -1 strt_layer_1                  
